# MODFLOW2000 Drain Package				
PARAMETER  0  0				
 401 50  AUX IFACE				
 401 0                      Stress Period 1				
1	46	345	1283.7	7.8900000000000
1	46	346	1283.5	22.490000000000
1	46	347	1283.4	4.2500000000000
1	47	345	1283.7	7.1000000000000
1	47	346	1283.6	23.310000000000
1	47	347	1283.7	15.710000000000
1	48	347	1284.2	23.200000000000
1	49	345	1284.1	4.9000000000000
1	49	346	1284.2	23.170000000000
1	49	347	1284.6	9.0100000000000
1	50	345	1284.1	18.380000000000
1	50	346	1284.5	2.5500000000000
1	51	346	1284.6	20.890000000000
1	52	345	1284.2	7.9600000000000
1	52	346	1284.7	14.310000000000
1	53	344	1284.1	18.530000000000
1	53	345	1284.5	18.470000000000
1	54	343	1284.2	15.720000000000
1	54	344	1284.4	9.6900000000000
1	55	342	1284.1	22.100000000000
1	55	343	1284.2	12.080000000000
1	56	342	1284.1	31.280000000000
1	56	343	1284.2	20.000000000000
1	56	344	1284.3	20.000000000000
1	56	345	1284.8	12.050000000000
1	57	345	1284.4	8.5700000000000
1	57	346	1284.7	26.630000000000
1	58	347	1284.9	21.040000000000
1	59	346	1284.3	8.6300000000000
1	59	347	1284.9	16.210000000000
1	60	343	1283.4	23.080000000000
1	60	344	1283.7	20.210000000000
1	60	345	1284	20.420000000000
1	60	346	1284.5	15.680000000000
1	61	343	1283.1	20.020000000000
1	61	344	1283.9	20.510000000000
1	61	345	1284.7	20.240000000000
1	61	346	1285.1	20.130000000000
1	61	347	1285.3	22.770000000000
1	62	341	1281.2	17.890000000000
1	62	342	1282.9	20.140000000000
1	62	343	1284.7	20.390000000000
1	62	344	1286	15.560000000000
1	62	347	1285.6	6.9300000000000
1	62	348	1285	14.580000000000
1	63	340	1280.7	20.080000000000
1	63	341	1281.4	12.690000000000
1	63	344	1290	21.750000000000
1	63	347	1285.8	22.260000000000
1	64	339	1280.7	10.840000000000
1	64	340	1280.7	2.2900000000000
1	64	344	1294.7	3.4500000000000
1	64	345	1292.2	19.510000000000
1	64	346	1288.7	13.600000000000
1	64	347	1287.1	13.450000000000
1	65	340	1280.7	22.100000000000
1	65	345	1294.7	12.350000000000
1	65	346	1290.6	10.820000000000
1	66	340	1280.6	23.000000000000
1	67	340	1280.5	5.4000000000000
1	67	341	1281.4	20.020000000000
1	67	342	1285.2	23.510000000000
1	68	343	1287.9	20.810000000000
1	69	337	1280.6	23.870000000000
1	69	338	1280.2	26.730000000000
1	69	339	1280	11.330000000000
1	69	340	1280.1	1.9500000000000
1	69	341	1280.1	17.170000000000
1	69	343	1287	20.170000000000
1	70	337	1280.2	21.200000000000
1	70	338	1280	5.3600000000000
1	70	339	1279.9	17.910000000000
1	70	340	1280	23.180000000000
1	70	341	1280.5	6.4200000000000
1	70	342	1282.4	21.260000000000
1	70	343	1288	18.340000000000
1	71	337	1280.1	17.790000000000
1	71	338	1279.9	8.1200000000000
1	71	339	1280.1	15.370000000000
1	71	340	1280.7	22.690000000000
1	72	335	1280.7	12.050000000000
1	72	336	1280.2	21.550000000000
1	72	337	1280	11.600000000000
1	72	338	1279.9	19.950000000000
1	72	339	1280.6	8.5500000000000
1	73	335	1280.4	22.700000000000
1	73	337	1280.3	17.870000000000
1	73	338	1280.4	13.970000000000
1	73	339	1281.9	31.500000000000
1	74	334	1280.8	16.650000000000
1	74	338	1281.4	8.2000000000000
1	75	333	1282.2	5.9800000000000
1	75	334	1280.6	19.760000000000
1	76	333	1281.9	25.690000000000
1	77	332	1285.3	22.990000000000
1	78	332	1284.4	4.7100000000000
1	78	333	1281.3	22.120000000000
1	79	333	1281.5	5.9000000000000
1	79	334	1280.4	24.280000000000
1	80	335	1280.3	26.600000000000
1	81	335	1280.4	20.680000000000
1	82	335	1280.4	21.280000000000
1	83	335	1280.5	23.610000000000
1	84	335	1280.9	5.1100000000000
1	84	336	1280.5	20.280000000000
1	84	337	1280.4	20.280000000000
1	84	338	1280.6	21.790000000000
1	84	339	1281.4	9.2500000000000
1	85	339	1280.5	12.370000000000
1	85	340	1281.3	20.480000000000
1	85	341	1282.4	20.060000000000
1	85	342	1284.2	20.320000000000
1	85	343	1285.9	13.140000000000
1	86	343	1284.2	21.130000000000
1	87	342	1281	8.6300000000000
1	87	343	1283.3	15.960000000000
1	88	342	1281	23.980000000000
1	89	342	1280.7	23.240000000000
1	90	342	1280.7	10.880000000000
1	90	343	1280.6	20.090000000000
1	90	344	1280.8	22.120000000000
1	91	345	1280.4	20.460000000000
1	92	345	1280.3	20.040000000000
1	93	345	1280.3	23.180000000000
1	94	345	1280.6	4.6700000000000
1	94	346	1280.3	20.720000000000
1	94	347	1280.4	24.450000000000
1	95	348	1280.4	21.460000000000
1	96	348	1280.3	20.380000000000
1	97	348	1280.3	20.120000000000
1	98	348	1280.4	20.010000000000
1	99	348	1280.6	20.940000000000
1	99	351	1280	20.490000000000
1	99	352	1280	22.930000000000
1	99	353	1280.4	11.040000000000
1	100	348	1281.1	3.7200000000000
1	100	349	1280.3	17.470000000000
1	100	350	1279.9	7.1200000000000
1	100	351	1279.8	16.800000000000
1	100	353	1280.2	20.140000000000
1	101	349	1280.7	20.220000000000
1	101	350	1280.1	21.090000000000
1	101	352	1279.9	6.5300000000000
1	101	353	1280.2	15.350000000000
1	102	352	1280.1	24.000000000000
1	103	350	1280.3	13.930000000000
1	103	351	1280.3	23.480000000000
1	104	349	1281.1	27.620000000000
1	104	350	1280.5	7.5400000000000
1	105	348	1281.4	19.310000000000
1	106	349	1281.4	23.510000000000
1	107	349	1281	21.800000000000
1	107	354	1280.1	26.780000000000
1	107	355	1280	21.520000000000
1	107	356	1280.3	22.760000000000
1	108	349	1280.3	25.690000000000
1	108	354	1280	16.230000000000
1	108	355	1279.9	11.000000000000
1	108	356	1280.1	2.1800000000000
1	108	357	1280.4	23.290000000000
1	108	358	1280.7	13.330000000000
1	109	349	1280.4	3.4100000000000
1	109	350	1280.2	24.220000000000
1	109	354	1280.1	1.6100000000000
1	109	355	1280.2	21.210000000000
1	109	358	1280.2	9.9600000000000
1	109	359	1280.8	20.980000000000
1	110	350	1280.1	24.450000000000
1	110	353	1280.2	13.200000000000
1	110	354	1280.3	23.660000000000
1	110	359	1280.5	21.700000000000
1	111	348	1282.3	6.7700000000000
1	111	349	1280.4	25.360000000000
1	111	351	1280.1	17.150000000000
1	111	352	1280.4	21.800000000000
1	111	353	1280.5	9.6400000000000
1	111	359	1280.4	20.870000000000
1	112	348	1285.3	25.450000000000
1	112	350	1281.1	23.830000000000
1	112	351	1281.1	5.8200000000000
1	112	356	1280.5	2.2800000000000
1	112	357	1280.2	21.080000000000
1	112	358	1280.1	20.000000000000
1	112	359	1280.3	20.300000000000
1	113	348	1288.6	23.020000000000
1	113	349	1284.2	24.330000000000
1	113	350	1282.7	3.6200000000000
1	113	356	1280.3	22.410000000000
1	114	356	1280.1	20.200000000000
1	115	353	1280.6	19.630000000000
1	115	354	1280.1	20.430000000000
1	115	355	1280	2.7200000000000
1	115	356	1280.1	27.820000000000
1	116	353	1280.3	21.290000000000
1	117	353	1280.7	12.190000000000
1	117	354	1280.2	20.840000000000
1	117	355	1280.1	20.080000000000
1	117	356	1280.1	20.230000000000
1	117	357	1280.2	14.830000000000
1	117	359	1280.4	6.4800000000000
1	117	360	1280.9	21.380000000000
1	118	357	1280.3	8.4300000000000
1	118	358	1280.2	25.770000000000
1	118	359	1280.1	22.980000000000
1	118	360	1280.2	1.5400000000000
1	118	361	1281.4	21.740000000000
1	119	361	1280.7	21.950000000000
1	120	360	1280.3	20.700000000000
1	121	359	1280.4	9.5400000000000
1	121	360	1280.5	14.690000000000
1	122	359	1280.4	19.930000000000
1	122	360	1280.6	7.2500000000000
1	123	358	1281.4	15.430000000000
1	123	359	1280.9	21.080000000000
1	123	360	1281.6	5.8900000000000
1	124	357	1283.1	8.8200000000000
1	124	358	1282.5	14.950000000000
1	125	357	1283.9	21.700000000000
1	126	357	1285.8	20.680000000000
1	127	357	1286.3	29.220000000000
1	128	358	1286.7	29.940000000000
1	129	355	1285.8	22.220000000000
1	129	356	1284.9	20.080000000000
1	129	357	1284.5	20.080000000000
1	129	358	1285	24.090000000000
1	129	360	1285.9	17.310000000000
1	129	361	1285.7	20.010000000000
1	129	362	1286.4	7.0000000000000
1	130	355	1284.6	23.920000000000
1	130	358	1284.3	8.5900000000000
1	130	359	1284.6	24.580000000000
1	130	360	1284.6	3.1500000000000
1	130	362	1284.8	18.870000000000
1	130	363	1286.1	8.7300000000000
1	131	355	1285.2	6.4100000000000
1	131	356	1284.6	20.970000000000
1	131	357	1284.4	20.590000000000
1	131	358	1284.4	16.610000000000
1	131	363	1284.7	21.740000000000
1	131	370	1284.9	14.670000000000
1	131	371	1284.7	17.000000000000
1	132	363	1284.6	21.830000000000
1	132	365	1284.8	11.100000000000
1	132	366	1285.7	20.770000000000
1	132	367	1286.4	22.230000000000
1	132	369	1285.6	3.0300000000000
1	132	370	1284.2	19.820000000000
1	132	371	1284	20.570000000000
1	133	363	1284.8	1.8500000000000
1	133	364	1284.7	21.300000000000
1	133	365	1285.1	13.230000000000
1	133	368	1286.1	25.230000000000
1	133	369	1285.3	22.850000000000
1	1	376	1286.1	20.000000000000
1	2	376	1286.1	20.010000000000
1	4	376	1286.1	20.010000000000
1	8	376	1286.1	20.010000000000
1	14	374	1286.1	17.480000000000
1	15	374	1286.1	2.6200000000000
1	9	376	1286.1	20.010000000000
1	15	373	1286.4	20.100000000000
1	15	372	1286.6	20.100000000000
1	5	376	1286.1	20.760000000000
1	10	376	1286.1	20.010000000000
1	11	376	1286.1	20.010000000000
1	3	376	1286.1	20.010000000000
1	6	376	1286.1	21.110000000000
1	12	376	1286.1	20.010000000000
1	13	376	1286.1	20.010000000000
1	7	376	1286.1	20.210000000000
1	14	376	1286.1	21.420000000000
1	14	375	1286.1	20.100000000000
1	15	371	1286.6	14.620000000000
1	15	370	1286.5	18.270000000000
1	16	370	1286.5	3.8000000000000
1	16	369	1287.2	11.080000000000
1	15	369	1287.1	8.9300000000000
1	15	368	1287.7	21.450000000000
1	15	367	1287.5	21.370000000000
1	15	366	1287.2	25.020000000000
1	16	366	1286.7	13.560000000000
1	16	365	1286.1	14.570000000000
1	17	365	1285.9	8.8200000000000
1	17	364	1286.4	25.920000000000
1	18	364	1286.7	24.560000000000
1	19	365	1287.8	22.060000000000
1	20	365	1288.8	20.010000000000
1	20	364	1288.3	4.2000000000000
1	21	364	1288.5	17.290000000000
1	21	363	1287.5	9.0100000000000
1	20	363	1287.7	15.470000000000
1	20	362	1286.8	12.060000000000
1	19	362	1287.5	22.450000000000
1	18	362	1287.6	11.300000000000
1	18	361	1288.2	9.4300000000000
1	17	361	1288.9	20.000000000000
1	16	361	1290.7	20.000000000000
1	15	361	1294	22.880000000000
1	14	361	1297.7	10.790000000000
1	14	360	1299	13.240000000000
1	15	360	1295.8	8.3100000000000
1	15	359	1298.6	22.950000000000
1	16	359	1296.5	20.790000000000
1	17	359	1295.7	22.640000000000
1	18	359	1295.3	18.110000000000
1	18	360	1291.5	7.9400000000000
1	19	360	1291	23.280000000000
1	19	361	1287.8	2.4400000000000
1	20	361	1287.2	21.980000000000
1	21	361	1286.8	21.740000000000
1	22	361	1286.3	8.0300000000000
1	23	361	1285.8	21.150000000000
1	24	361	1285.7	21.100000000000
1	25	361	1286.1	12.720000000000
1	25	360	1285.8	8.0500000000000
1	26	360	1286.5	5.5200000000000
1	26	361	1286.8	23.310000000000
1	26	362	1287	22.760000000000
1	26	363	1287.6	24.660000000000
1	27	363	1287.6	20.000000000000
1	28	363	1287.7	22.260000000000
1	29	363	1287.5	13.780000000000
1	29	362	1287.4	21.040000000000
1	29	361	1287.4	20.920000000000
1	29	360	1287.5	22.460000000000
1	28	359	1287.6	23.470000000000
1	28	358	1287.8	10.700000000000
1	27	358	1287.6	17.990000000000
1	27	357	1288	7.8400000000000
1	26	357	1287.7	23.800000000000
1	25	357	1288.4	6.7600000000000
1	25	356	1290.5	17.090000000000
1	24	356	1292.7	13.800000000000
1	24	355	1295.4	9.2000000000000
1	25	355	1293.2	23.460000000000
1	26	355	1290.9	3.1400000000000
1	26	354	1293.6	18.060000000000
1	27	354	1291.4	16.930000000000
1	27	355	1289.1	20.340000000000
1	27	356	1288	1.7400000000000
1	28	356	1286.9	23.160000000000
1	29	356	1286	20.460000000000
1	30	356	1285.5	21.890000000000
1	31	356	1285.3	22.150000000000
1	32	356	1285.2	20.180000000000
1	33	356	1285.3	22.320000000000
1	34	356	1285.2	12.040000000000
1	34	355	1285	20.250000000000
1	34	354	1284.5	21.170000000000
1	34	353	1284	10.630000000000
1	33	353	1283.5	21.380000000000
1	32	353	1283.1	20.000000000000
1	31	353	1283.4	10.220000000000
1	31	352	1283.5	20.720000000000
1	31	351	1283.8	10.300000000000
1	32	351	1283.1	16.920000000000
1	32	350	1283.1	9.3600000000000
1	33	350	1283.2	20.620000000000
1	34	350	1283.4	20.250000000000
1	35	350	1283.6	21.640000000000
1	36	350	1284.1	1.3400000000000
1	36	351	1284.2	19.420000000000
1	37	351	1284.3	3.5200000000000
1	37	350	1284.3	24.430000000000
1	37	349	1284.2	23.790000000000
1	37	348	1284	3.4300000000000
1	36	348	1283.5	21.660000000000
1	35	348	1283.2	20.110000000000
1	34	348	1283.1	22.000000000000
1	33	348	1282.8	13.910000000000
1	33	349	1283.1	7.1400000000000
1	32	349	1283	20.720000000000
1	31	347	1287.5	20.150000000000
1	34	345	1287.3	20.010000000000
1	35	345	1285.3	20.280000000000
1	31	348	1284.9	25.130000000000
1	36	345	1283.8	24.790000000000
1	32	346	1287.7	8.8800000000000
1	33	345	1289.5	20.010000000000
1	32	345	1292.7	13.500000000000
1	31	346	1292.6	20.160000000000
1	36	344	1286.2	1.5500000000000
1	37	344	1284.3	19.990000000000
1	37	343	1287.8	22.580000000000
1	39	344	1283.9	20.190000000000
1	37	342	1291.9	3.7400000000000
1	38	342	1291.6	22.010000000000
1	39	343	1287.6	25.320000000000
1	39	345	1283.7	9.4900000000000
1	40	345	1283.8	13.690000000000
1	40	346	1283.9	15.950000000000
1	41	346	1283.5	21.100000000000
1	42	346	1283.3	20.750000000000
1	43	346	1283.3	20.110000000000
1	44	346	1283.3	17.840000000000
1	44	347	1283.1	21.250000000000
1	44	348	1283	20.170000000000
1	44	349	1283.4	22.060000000000
1	45	349	1283.7	4.6900000000000
1	45	348	1283.3	25.470000000000
1	45	347	1283.2	15.990000000000
-1			Stress Period 2	
-1			Stress Period 3	
-1			Stress Period 4	
-1			Stress Period 5	
-1			Stress Period 6	
-1			Stress Period 7	
-1			Stress Period 8	
-1			Stress Period 9	
-1			Stress Period 10	
-1			Stress Period 11	
-1			Stress Period 12	
-1			Stress Period 13	
-1			Stress Period 14	
-1			Stress Period 15	
-1			Stress Period 16	
-1			Stress Period 17	
-1			Stress Period 18	
-1			Stress Period 19	
-1			Stress Period 20	
-1			Stress Period 21	
-1			Stress Period 22	
-1			Stress Period 23	
-1			Stress Period 24	
-1			Stress Period 25	
-1			Stress Period 26	
-1			Stress Period 27	
-1			Stress Period 28	
-1			Stress Period 29	
-1			Stress Period 30	
-1			Stress Period 31	
-1			Stress Period 32	
-1			Stress Period 33	
-1			Stress Period 34	
-1			Stress Period 35	
-1			Stress Period 36	
-1			Stress Period 37	
-1			Stress Period 38	
-1			Stress Period 39	
-1			Stress Period 40	
-1			Stress Period 41	
-1			Stress Period 42	
-1			Stress Period 43	
-1			Stress Period 44	
-1			Stress Period 45	
-1			Stress Period 46	
-1			Stress Period 47	
-1			Stress Period 48	
-1			Stress Period 49	
-1			Stress Period 50	
-1			Stress Period 51	
-1			Stress Period 52	
-1			Stress Period 53	
-1			Stress Period 54	
-1			Stress Period 55	
-1			Stress Period 56	
-1			Stress Period 57	
-1			Stress Period 58	
-1			Stress Period 59	
-1			Stress Period 60	
-1			Stress Period 61	
-1			Stress Period 62	
-1			Stress Period 63	
-1			Stress Period 64	
-1			Stress Period 65	
-1			Stress Period 66	
-1			Stress Period 67	
-1			Stress Period 68	
-1			Stress Period 69	
-1			Stress Period 70	
-1			Stress Period 71	
-1			Stress Period 72	
-1			Stress Period 73	
-1			Stress Period 74	
-1			Stress Period 75	
-1			Stress Period 76	
-1			Stress Period 77	
-1			Stress Period 78	
-1			Stress Period 79	
-1			Stress Period 80	
-1			Stress Period 81	
-1			Stress Period 82	
-1			Stress Period 83	
-1			Stress Period 84	
-1			Stress Period 85	
-1			Stress Period 86	
-1			Stress Period 87	
-1			Stress Period 88	
-1			Stress Period 89	
-1			Stress Period 90	
-1			Stress Period 91	
-1			Stress Period 92	
-1			Stress Period 93	
-1			Stress Period 94	
-1			Stress Period 95	
-1			Stress Period 96	
-1			Stress Period 97	
-1			Stress Period 98	
-1			Stress Period 99	
