"DEPENDENT NAME", "VALUE"
Q1c                 ,     1311.078491210938    
Q2c                 ,     1306.987548828125    
Q3c                 ,     1300.706420898438    
Q4c                 ,     1315.404174804688    
Q5c                 ,     1309.278198242188    
Q6c                 ,     1307.907470703125    
MODFLOW_STAT        ,     0.000000000000000    
DEWATER_STAT        ,     0.000000000000000    
