# MODFLOW2000 Discretization File
 7  368  410  2  4  1                                            NLAY NROW NCOL NPER ITMUNI LENUNI
 0 0 0 0 0 0 0                                                    LAYCBD (Layer 1, Layer 2, Layer 3, etc.)
 CONSTANT  200                                                    DELTA-X or C
 CONSTANT  200                                                    DELTA-Y or R
 OPEN/CLOSE  ..\external_files\surfs\top1.dat    1.0   (FREE)    -1     TOP of Model
 OPEN/CLOSE  ..\external_files\surfs\bot1.dat    1.0   (FREE)    -1     BOTTOM of Layer   1 variable
 OPEN/CLOSE  ..\external_files\surfs\bot2.dat    1.0   (FREE)    -1     BOTTOM of Layer   2 variable
 OPEN/CLOSE  ..\external_files\surfs\bot3.dat    1.0   (FREE)    -1     BOTTOM of Layer   3 variable
 OPEN/CLOSE  ..\external_files\surfs\bot4.dat    1.0   (FREE)    -1     BOTTOM of Layer   4 variable
 OPEN/CLOSE  ..\external_files\surfs\bot5.dat    1.0   (FREE)    -1     BOTTOM of Layer   5 variable
 OPEN/CLOSE  ..\external_files\surfs\bot6.dat    1.0   (FREE)    -1     BOTTOM of Layer   6 variable
 OPEN/CLOSE  ..\external_files\surfs\bot7.dat    1.0   (FREE)    -1     BOTTOM of Layer   7 (constant, 900)
1    1   1  SS  SP1   PERLEN NSTP TSMULT SS/TR
365  12  1  TR  SP2