# SFR Package for MODFLOW2000
# OPTIONS
# TABFILES 2 493
# END
 -2032  8  0  0  1.283904e+005  1.000000e-004  50  -98 1 0 0 0
  1  1  71  1  1  216.050003  1323.709961  0.000544  1.000000          4.0643130E-01
  1  2  71  1  2  230.539993  1323.592407  0.000357  1.000000          4.0643130E-01
  1  3  71  1  3  82.379997  1323.510010  0.000631  1.000000          4.0643130E-01
  1  3  72  1  4  153.369995  1323.458008  0.000574  1.000000          4.0643130E-01
  1  4  72  1  5  246.210007  1323.369995  0.000469  1.000000          4.0643130E-01
  1  5  72  1  6  5.348500  1323.254395  0.023261  1.000000          4.0643130E-01
  1  5  73  1  7  265.399994  1323.130005  0.000199  1.000000          4.0643130E-01
  1  5  74  1  8  43.787998  1323.077148  0.000904  1.000000          4.0643130E-01
  1  6  74  1  9  188.070007  1323.037598  0.000373  1.000000          4.0643130E-01
  1  6  75  1  10  223.100006  1322.967407  0.000186  1.000000          4.0643130E-01
  1  6  76  1  11  19.976999  1322.925903  0.001797  1.000000          4.0643130E-01
  1  7  76  1  12  190.199997  1322.890015  0.017298  1.000000          4.0643130E-01
  1  7  77  1  13  202.669998  1319.599976  0.001184  1.000000          4.0643130E-01
  1  7  78  1  14  202.669998  1319.359985  0.000691  1.000000          4.0643130E-01
  1  7  79  1  15  202.779999  1319.219971  0.000100  1.000000          4.0643130E-01
  1  7  80  1  16  202.419998  1319.213257  0.000100  1.000000          4.0643130E-01
  1  7  81  1  17  201.520004  1319.206421  0.000100  1.000000          4.0643130E-01
  1  7  82  1  18  220.960007  1319.199463  0.000100  1.000000          4.0643130E-01
  1  7  83  1  19  21.705999  1319.195313  0.000204  1.000000          4.0643130E-01
  1  8  83  1  20  243.259995  1319.190918  0.000100  1.000000          4.0643130E-01
  1  8  84  1  21  58.374001  1319.185913  0.000100  1.000000          4.0643130E-01
  1  9  84  1  22  236.580002  1319.180908  0.000100  1.000000          4.0643130E-01
  1  9  85  1  23  30.193001  1319.176514  0.000142  1.000000          4.0643130E-01
  1  10  85  1  24  225.910004  1319.172241  0.000100  1.000000          4.0643130E-01
  1  11  85  1  25  141.470001  1319.166016  0.000100  1.000000          4.0643130E-01
  1  11  86  1  26  221.550003  1319.160034  0.000100  1.000000          4.0643130E-01
  1  11  87  1  27  43.959000  1319.155151  0.000127  1.000000          4.0643130E-01
  1  12  87  1  28  263.799988  1319.149536  0.000100  1.000000          4.0643130E-01
  1  13  87  1  29  14.457000  1319.144531  0.000274  1.000000          4.0643130E-01
  1  13  88  1  30  203.660004  1319.140625  0.000100  1.000000          4.0643130E-01
  1  14  88  1  31  233.399994  1319.132568  0.000100  1.000000          4.0643130E-01
  1  14  89  1  32  83.196999  1319.126831  0.000100  1.000000          4.0643130E-01
  1  15  89  1  33  120.370003  1319.123169  0.000100  1.000000          4.0643130E-01
  1  15  90  1  34  201.639999  1319.117310  0.000100  1.000000          4.0643130E-01
  1  15  91  1  35  201.600006  1319.109985  0.008284  1.000000          4.0643130E-01
  1  15  92  1  36  128.720001  1317.439941  0.000100  1.000000          4.0643130E-01
  1  14  92  1  37  80.450996  1317.435791  0.000100  1.000000          4.0643130E-01
  1  14  93  1  38  210.759995  1317.430054  0.000380  1.000000          4.0643130E-01
  1  14  94  1  39  203.600006  1317.349976  0.001424  1.000000          4.0643130E-01
  1  14  95  1  40  211.089996  1317.060059  0.000100  1.000000          4.0643130E-01
  1  14  96  1  41  30.325001  1317.051636  0.000262  1.000000          4.0643130E-01
  1  15  96  1  42  200.289993  1317.043701  0.000100  1.000000          4.0643130E-01
  1  15  97  1  43  158.919998  1317.031372  0.000100  1.000000          4.0643130E-01
  1  16  97  1  44  97.879997  1317.022461  0.000108  1.000000          4.0643130E-01
  1  16  98  1  45  208.580002  1317.011963  0.000100  1.000000          4.0643130E-01
  1  17  98  1  46  55.388000  1317.002808  0.000175  1.000000          4.0643130E-01
  1  17  99  1  47  225.720001  1316.993164  0.000100  1.000000          4.0643130E-01
  1  17  100  1  48  145.649994  1316.980347  0.000100  1.000000          4.0643130E-01
  1  18  100  1  49  90.865997  1316.972168  0.000101  1.000000          4.0643130E-01
  1  18  101  1  50  175.990006  1316.962891  0.000100  1.000000          4.0643130E-01
  1  19  101  1  51  215.970001  1316.949463  0.000100  1.000000          4.0643130E-01
  1  20  101  1  52  57.542000  1316.939941  0.000695  1.000000          4.0643130E-01
  1  20  102  1  53  183.029999  1316.900024  0.002677  1.000000          4.0643130E-01
  1  21  102  1  54  118.080002  1316.410034  0.000737  1.000000          4.0643130E-01
  1  21  103  1  55  219.539993  1316.322998  0.000395  1.000000          4.0643130E-01
  1  21  104  1  56  116.900002  1316.236206  0.000567  1.000000          4.0643130E-01
  1  22  104  1  57  140.130005  1316.170044  0.000705  1.000000          4.0643130E-01
  1  22  105  1  58  108.669998  1316.071289  0.001384  1.000000          4.0643130E-01
  1  23  105  1  59  270.369995  1315.920776  0.000399  1.000000          4.0643130E-01
  1  23  106  1  60  1.446700  1315.812988  0.056391  1.000000          4.0643130E-01
  1  24  106  1  61  204.110001  1315.731323  0.000791  1.000000          4.0643130E-01
  1  24  107  1  62  202.490006  1315.569946  0.003161  1.000000          4.0643130E-01
  1  24  108  1  63  205.059998  1314.930054  0.002097  1.000000          4.0643130E-01
  1  24  109  1  64  229.740006  1314.500000  0.000139  1.000000          4.0643130E-01
  1  24  110  1  65  66.305000  1314.468018  0.000350  1.000000          4.0643130E-01
  1  25  110  1  66  147.990006  1314.444824  0.000259  1.000000          4.0643130E-01
  1  25  111  1  67  206.809998  1314.406372  0.000225  1.000000          4.0643130E-01
  1  25  112  1  68  222.490006  1314.359985  0.000366  1.000000          4.0643130E-01
  1  25  113  1  69  29.468000  1314.278442  0.002323  1.000000          4.0643130E-01
  1  26  113  1  70  182.100006  1314.209961  0.013784  1.000000          4.0643130E-01
  1  26  114  1  71  211.110001  1311.699951  0.002368  1.000000          4.0643130E-01
  1  26  115  1  72  204.160004  1311.199951  0.000100  1.000000          4.0643130E-01
  1  26  116  1  73  257.700012  1311.190796  0.000100  1.000000          4.0643130E-01
  1  26  117  1  74  5.848400  1311.185669  0.000962  1.000000          4.0643130E-01
  1  27  117  1  75  278.089996  1311.179932  0.000100  1.000000          4.0643130E-01
  1  28  117  1  76  5.029800  1311.174316  0.001086  1.000000          4.0643130E-01
  1  28  118  1  77  270.570007  1311.168945  0.000100  1.000000          4.0643130E-01
  1  29  118  1  78  23.191999  1311.163086  0.000240  1.000000          4.0643130E-01
  1  29  119  1  79  258.130005  1311.157471  0.000100  1.000000          4.0643130E-01
  1  30  119  1  80  23.083000  1311.151978  0.000211  1.000000          4.0643130E-01
  1  30  120  1  81  223.100006  1311.147095  0.000100  1.000000          4.0643130E-01
  1  30  121  1  82  175.479996  1311.139160  0.000100  1.000000          4.0643130E-01
  1  31  121  1  83  55.091000  1311.134644  0.000113  1.000000          4.0643130E-01
  1  31  122  1  84  260.049988  1311.128296  0.000100  1.000000          4.0643130E-01
  1  31  123  1  85  11.217000  1311.122925  0.000438  1.000000          4.0643130E-01
  1  32  123  1  86  236.789993  1311.118042  0.000100  1.000000          4.0643130E-01
  1  33  123  1  87  206.169998  1311.109253  0.000100  1.000000          4.0643130E-01
  1  33  124  1  88  9.019600  1311.104980  0.000626  1.000000          4.0643130E-01
  1  34  124  1  89  275.709992  1311.099365  0.000100  1.000000          4.0643130E-01
  1  34  125  1  90  26.665001  1311.093384  0.000178  1.000000          4.0643130E-01
  1  35  125  1  91  212.339996  1311.088623  0.000100  1.000000          4.0643130E-01
  1  35  126  1  92  147.130005  1311.081543  0.000100  1.000000          4.0643130E-01
  1  36  126  1  93  119.919998  1311.076172  0.000100  1.000000          4.0643130E-01
  1  36  127  1  94  133.050003  1311.071167  0.000100  1.000000          4.0643130E-01
  1  37  127  1  95  222.990006  1311.064087  0.000100  1.000000          4.0643130E-01
  1  37  128  1  96  33.832001  1311.059082  0.000126  1.000000          4.0643130E-01
  1  38  128  1  97  181.630005  1311.054810  0.000100  1.000000          4.0643130E-01
  1  38  129  1  98  200.750000  1311.047119  0.000100  1.000000          4.0643130E-01
  1  38  130  1  99  205.309998  1311.039185  0.000100  1.000000          4.0643130E-01
  1  38  131  2  1  49.952000  1311.034058  0.000100  1.000000          1.0000000E-03
  1  37  131  2  2  152.360001  1311.030029  0.000100  1.000000          1.0000000E-03
  1  37  132  2  3  214.550003  1311.022827  0.000100  1.000000          1.0000000E-03
  1  37  133  2  4  203.320007  1311.014526  0.000100  1.000000          1.0000000E-03
  1  37  134  2  5  233.970001  1311.005859  0.000100  1.000000          1.0000000E-03
  1  38  134  2  6  3.936100  1311.001099  0.001262  1.000000          1.0000000E-03
  1  38  135  2  7  246.580002  1310.996094  0.000100  1.000000          1.0000000E-03
  1  39  135  2  8  174.600006  1310.987793  0.000100  1.000000          1.0000000E-03
  1  39  136  2  9  36.424000  1310.983643  0.000106  1.000000          1.0000000E-03
  1  40  136  2  10  157.710007  1310.979736  0.000100  1.000000          1.0000000E-03
  1  40  135  2  11  50.026001  1310.975708  0.000124  1.000000          1.0000000E-03
  1  41  135  2  12  262.089996  1310.969482  0.000100  1.000000          1.0000000E-03
  1  42  135  2  13  24.990999  1310.963745  0.000194  1.000000          1.0000000E-03
  1  42  134  2  14  220.110001  1310.958862  0.000100  1.000000          1.0000000E-03
  1  43  134  2  15  200.009995  1310.950562  0.000100  1.000000          1.0000000E-03
  1  44  134  2  16  201.929993  1310.942627  0.000100  1.000000          1.0000000E-03
  1  45  134  2  17  203.850006  1310.934570  0.000100  1.000000          1.0000000E-03
  1  46  134  2  18  200.009995  1310.926514  0.000100  1.000000          1.0000000E-03
  1  47  134  2  19  200.009995  1310.918579  0.000100  1.000000          1.0000000E-03
  1  48  134  2  20  205.539993  1310.910645  0.000100  1.000000          1.0000000E-03
  1  49  134  2  21  223.949997  1310.902100  0.000100  1.000000          1.0000000E-03
  1  50  134  2  22  56.053001  1310.896484  0.000105  1.000000          1.0000000E-03
  1  50  135  2  23  241.309998  1310.890625  0.000100  1.000000          1.0000000E-03
  1  51  135  2  24  26.360001  1310.885376  0.000185  1.000000          1.0000000E-03
  1  51  136  2  25  220.089996  1310.880493  0.000100  1.000000          1.0000000E-03
  1  51  137  2  26  214.000000  1310.871826  0.000100  1.000000          1.0000000E-03
  1  52  137  2  27  21.545000  1310.867188  0.000211  1.000000          1.0000000E-03
  1  52  138  2  28  207.699997  1310.862671  0.000100  1.000000          1.0000000E-03
  1  53  138  2  29  201.669998  1310.854492  0.000100  1.000000          1.0000000E-03
  1  54  138  2  30  233.169998  1310.845825  0.000100  1.000000          1.0000000E-03
  1  55  138  2  31  4.418200  1310.841187  0.001271  1.000000          1.0000000E-03
  1  55  137  2  32  278.820007  1310.835571  0.000100  1.000000          1.0000000E-03
  1  56  137  2  33  3.621700  1310.829956  0.001523  1.000000          1.0000000E-03
  1  56  136  2  34  274.579987  1310.824463  0.000100  1.000000          1.0000000E-03
  1  57  136  2  35  20.974001  1310.818604  0.000211  1.000000          1.0000000E-03
  1  57  135  2  36  202.050003  1310.814209  0.000100  1.000000          1.0000000E-03
  1  58  135  2  37  200.009995  1310.806152  0.000100  1.000000          1.0000000E-03
  1  59  135  2  38  226.580002  1310.797729  0.000100  1.000000          1.0000000E-03
  1  60  135  2  39  19.191999  1310.792847  0.000235  1.000000          1.0000000E-03
  1  60  136  2  40  208.210007  1310.788330  0.000100  1.000000          1.0000000E-03
  1  61  136  2  41  180.789993  1310.780640  0.000100  1.000000          1.0000000E-03
  1  61  137  2  42  158.259995  1310.773926  0.000100  1.000000          1.0000000E-03
  1  62  137  2  43  52.979000  1310.769775  0.000100  1.000000          1.0000000E-03
  1  62  138  2  44  200.029999  1310.764771  0.000100  1.000000          1.0000000E-03
  1  62  139  2  45  252.979996  1310.755737  0.000100  1.000000          1.0000000E-03
  1  62  140  2  46  73.963997  1310.749268  0.000100  1.000000          1.0000000E-03
  1  63  140  2  47  200.100006  1310.743774  0.000100  1.000000          1.0000000E-03
  1  64  140  2  48  169.970001  1310.736450  0.000100  1.000000          1.0000000E-03
  1  64  139  2  49  32.055000  1310.732422  0.000146  1.000000          1.0000000E-03
  1  65  139  2  50  203.410004  1310.727783  0.000100  1.000000          1.0000000E-03
  1  66  139  2  51  203.410004  1310.719727  0.000100  1.000000          1.0000000E-03
  2  67  139  2  52  221.550003  1310.711304  0.000100  1.000000          1.0000000E-03
  2  68  139  2  53  57.483002  1310.705811  0.000100  1.000000          1.0000000E-03
  2  68  138  2  54  160.410004  1310.701416  0.000100  1.000000          1.0000000E-03
  2  69  138  2  55  34.247002  1310.697632  0.000146  1.000000          1.0000000E-03
  2  69  139  2  56  218.190002  1310.692627  0.000100  1.000000          1.0000000E-03
  2  70  139  2  57  85.853996  1310.686523  0.000100  1.000000          1.0000000E-03
  2  70  140  2  58  246.020004  1310.680054  0.000325  1.000000          1.0000000E-03
  2  70  141  2  59  16.997999  1310.599976  0.013831  1.000000          1.0000000E-03
  2  71  141  2  60  208.580002  1310.364868  0.001210  1.000000          1.0000000E-03
  2  72  141  2  61  33.506001  1310.112549  0.007538  1.000000          1.0000000E-03
  2  72  140  2  62  208.839996  1309.859985  0.000100  1.000000          1.0000000E-03
  2  73  140  2  63  212.460007  1309.857056  0.000100  1.000000          1.0000000E-03
  2  74  140  2  64  250.119995  1309.853882  0.000100  1.000000          1.0000000E-03
  2  74  141  2  65  66.367996  1309.851685  0.000100  1.000000          1.0000000E-03
  2  75  141  2  66  175.800003  1309.849976  0.007622  1.000000          1.0000000E-03
  2  75  142  2  67  213.809998  1308.510010  0.009448  1.000000          1.0000000E-03
  2  75  143  2  68  58.667000  1306.489990  0.000341  1.000000          1.0000000E-03
  2  76  143  2  69  203.339996  1306.469971  0.000372  1.000000          1.0000000E-03
  2  76  144  2  70  173.839996  1306.394287  0.000250  1.000000          1.0000000E-03
  1  77  144  2  71  42.471001  1306.350830  0.001198  1.000000          1.0000000E-03
  2  77  145  2  72  211.000000  1306.300049  0.000100  1.000000          1.0000000E-03
  2  77  146  2  73  224.199997  1306.293823  0.000100  1.000000          1.0000000E-03
  2  77  147  2  74  40.186001  1306.290039  0.000100  1.000000          1.0000000E-03
  2  78  147  2  75  198.009995  1306.286621  0.000100  1.000000          1.0000000E-03
  2  78  148  2  76  208.429993  1306.280884  0.000100  1.000000          1.0000000E-03
  2  78  149  2  77  203.800003  1306.275024  0.000100  1.000000          1.0000000E-03
  2  78  150  2  78  209.380005  1306.269165  0.000100  1.000000          1.0000000E-03
  2  78  151  2  79  215.779999  1306.263062  0.000100  1.000000          1.0000000E-03
  2  78  152  2  80  211.729996  1306.256958  0.000100  1.000000          1.0000000E-03
  2  78  153  2  81  146.550003  1306.251953  0.000100  1.000000          1.0000000E-03
  2  79  153  2  82  120.839996  1306.248047  0.000100  1.000000          1.0000000E-03
  2  79  154  2  83  108.040001  1306.244873  0.000100  1.000000          1.0000000E-03
  2  80  154  2  84  232.880005  1306.239990  0.000180  1.000000          1.0000000E-03
  2  81  154  2  85  142.270004  1306.197998  0.000165  1.000000          1.0000000E-03
  2  81  155  2  86  67.550003  1306.174561  0.000119  1.000000          1.0000000E-03
  2  82  155  2  87  4.183400  1306.166504  0.005348  1.000000          1.0000000E-03
  2  82  154  2  88  195.839996  1306.144165  0.000190  1.000000          1.0000000E-03
  2  83  154  2  89  136.570007  1306.106934  0.000166  1.000000          1.0000000E-03
  2  83  155  2  90  66.100998  1306.084351  0.000519  1.000000          1.0000000E-03
  2  84  155  2  91  240.729996  1306.050049  0.000871  1.000000          1.0000000E-03
  2  85  155  2  92  83.736000  1305.840332  0.002512  1.000000          1.0000000E-03
  2  85  156  2  93  241.750000  1305.630005  0.000100  1.000000          1.0000000E-03
  2  85  157  2  94  12.030000  1305.627319  0.000191  1.000000          1.0000000E-03
  2  86  157  2  95  209.559998  1305.625000  0.000100  1.000000          1.0000000E-03
  2  86  158  2  96  212.630005  1305.620728  0.000100  1.000000          1.0000000E-03
  2  86  159  2  97  142.910004  1305.616943  0.000100  1.000000          1.0000000E-03
  2  87  159  2  98  65.212997  1305.614868  0.000100  1.000000          1.0000000E-03
  2  87  160  2  99  207.089996  1305.611938  0.000100  1.000000          1.0000000E-03
  2  87  161  2  100  55.955002  1305.609253  0.000100  1.000000          1.0000000E-03
  2  86  161  2  101  209.100006  1305.606445  0.000100  1.000000          1.0000000E-03
  2  85  161  2  102  210.639999  1305.602173  0.000100  1.000000          1.0000000E-03
  2  84  161  2  103  142.740006  1305.598511  0.000100  1.000000          1.0000000E-03
  2  84  160  2  104  76.869003  1305.596191  0.000100  1.000000          1.0000000E-03
  2  83  160  2  105  202.210007  1305.593262  0.000100  1.000000          1.0000000E-03
  2  82  160  2  106  128.449997  1305.589844  0.000100  1.000000          1.0000000E-03
  2  82  161  2  107  230.360001  1305.586060  0.000100  1.000000          1.0000000E-03
  2  82  162  2  108  145.970001  1305.582153  0.000100  1.000000          1.0000000E-03
  2  83  162  2  109  191.139999  1305.578735  0.000100  1.000000          1.0000000E-03
  2  83  163  2  110  44.466000  1305.576294  0.000100  1.000000          1.0000000E-03
  2  84  163  2  111  235.600006  1305.573364  0.000100  1.000000          1.0000000E-03
  2  85  163  2  112  98.306000  1305.569824  0.000100  1.000000          1.0000000E-03
  2  85  164  2  113  126.830002  1305.567505  0.000100  1.000000          1.0000000E-03
  2  86  164  2  114  205.059998  1305.564087  0.000100  1.000000          1.0000000E-03
  2  87  164  2  115  203.279999  1305.559814  0.000100  1.000000          1.0000000E-03
  2  88  164  2  116  208.490006  1305.555542  0.000100  1.000000          1.0000000E-03
  2  88  165  2  117  16.870001  1305.553223  0.000142  1.000000          1.0000000E-03
  2  89  165  2  118  212.990006  1305.550781  0.000100  1.000000          1.0000000E-03
  2  90  165  2  119  222.000000  1305.546265  0.000100  1.000000          1.0000000E-03
  2  91  165  2  120  68.427002  1305.543335  0.000100  1.000000          1.0000000E-03
  1  91  166  2  121  141.610001  1305.541138  0.000100  1.000000          1.0000000E-03
  1  92  166  2  122  210.720001  1305.537476  0.000100  1.000000          1.0000000E-03
  1  93  166  2  123  215.699997  1305.533081  0.000100  1.000000          1.0000000E-03
  1  94  166  2  124  143.139999  1305.529297  0.000100  1.000000          1.0000000E-03
  1  94  167  2  125  132.600006  1305.526367  0.000100  1.000000          1.0000000E-03
  1  95  167  2  126  136.240006  1305.523682  0.000100  1.000000          1.0000000E-03
  1  95  168  2  127  169.399994  1305.520508  0.000100  1.000000          1.0000000E-03
  1  96  168  2  128  113.839996  1305.517456  0.000100  1.000000          1.0000000E-03
  1  96  169  2  129  118.120003  1305.515137  0.000100  1.000000          1.0000000E-03
  1  97  169  2  130  203.279999  1305.511719  0.000100  1.000000          1.0000000E-03
  1  98  169  2  131  15.938000  1305.509521  0.000136  1.000000          1.0000000E-03
  1  98  168  2  132  193.240006  1305.507324  0.000100  1.000000          1.0000000E-03
  1  99  168  2  133  216.660004  1305.503052  0.000100  1.000000          1.0000000E-03
  1  100  168  2  134  204.380005  1305.498657  0.000100  1.000000          1.0000000E-03
  1  101  168  2  135  200.910004  1305.494507  0.000100  1.000000          1.0000000E-03
  1  102  168  2  136  90.285004  1305.491455  0.000100  1.000000          1.0000000E-03
  1  102  167  2  137  112.580002  1305.489380  0.000100  1.000000          1.0000000E-03
  1  103  167  2  138  204.339996  1305.486084  0.000100  1.000000          1.0000000E-03
  1  104  167  2  139  206.770004  1305.481812  0.000100  1.000000          1.0000000E-03
  1  105  167  2  140  205.940002  1305.477417  0.000100  1.000000          1.0000000E-03
  1  106  167  2  141  167.949997  1305.473633  0.000100  1.000000          1.0000000E-03
  1  106  166  2  142  42.023998  1305.471436  0.000100  1.000000          1.0000000E-03
  1  107  166  2  143  221.690002  1305.468628  0.000100  1.000000          1.0000000E-03
  1  108  166  2  144  206.740006  1305.464233  0.000100  1.000000          1.0000000E-03
  1  109  166  2  145  202.110001  1305.459961  0.000100  1.000000          1.0000000E-03
  1  110  166  2  146  200.300003  1305.455811  0.000100  1.000000          1.0000000E-03
  1  111  166  2  147  60.612999  1305.453125  0.000100  1.000000          1.0000000E-03
  1  111  165  2  148  139.789993  1305.451050  0.000100  1.000000          1.0000000E-03
  1  112  165  2  149  201.199997  1305.447510  0.000100  1.000000          1.0000000E-03
  1  113  165  2  150  202.190002  1305.443237  0.000100  1.000000          1.0000000E-03
  1  114  165  2  151  222.610001  1305.438843  0.000100  1.000000          1.0000000E-03
  1  115  165  2  152  87.531998  1305.435669  0.000100  1.000000          1.0000000E-03
  1  115  164  2  153  173.539993  1305.432861  0.000100  1.000000          1.0000000E-03
  1  116  164  2  154  123.070000  1305.429810  0.000100  1.000000          1.0000000E-03
  1  116  163  2  155  154.889999  1305.426880  0.000100  1.000000          1.0000000E-03
  1  117  163  2  156  133.100006  1305.423950  0.000100  1.000000          1.0000000E-03
  1  117  162  2  157  131.910004  1305.421143  0.000100  1.000000          1.0000000E-03
  1  118  162  2  158  216.220001  1305.417603  0.000100  1.000000          1.0000000E-03
  1  119  162  2  159  206.059998  1305.413208  0.000100  1.000000          1.0000000E-03
  1  120  162  2  160  211.800003  1305.408813  0.000100  1.000000          1.0000000E-03
  1  121  162  2  161  87.591003  1305.405762  0.000100  1.000000          1.0000000E-03
  1  121  161  2  162  165.259995  1305.403076  0.000100  1.000000          1.0000000E-03
  1  122  161  2  163  126.019997  1305.400024  0.000100  1.000000          1.0000000E-03
  1  122  160  2  164  219.529999  1305.396484  0.000100  1.000000          1.0000000E-03
  1  123  160  2  165  17.981001  1305.394043  0.000148  1.000000          1.0000000E-03
  1  123  159  2  166  237.509995  1305.391357  0.000100  1.000000          1.0000000E-03
  1  123  158  2  167  84.738998  1305.388062  0.000100  1.000000          1.0000000E-03
  1  124  158  2  168  210.020004  1305.385010  0.000100  1.000000          1.0000000E-03
  1  124  157  2  169  62.162998  1305.382080  0.000100  1.000000          1.0000000E-03
  1  125  157  2  170  176.429993  1305.379639  0.000100  1.000000          1.0000000E-03
  1  125  156  2  171  243.539993  1305.375244  0.000100  1.000000          1.0000000E-03
  1  126  156  2  172  14.892000  1305.372559  0.000163  1.000000          1.0000000E-03
  1  126  155  2  173  218.779999  1305.370117  0.000100  1.000000          1.0000000E-03
  1  127  155  2  174  209.440002  1305.365723  0.000100  1.000000          1.0000000E-03
  1  128  155  2  175  120.580002  1305.362305  0.000100  1.000000          1.0000000E-03
  1  128  154  2  176  88.685997  1305.360107  0.000100  1.000000          1.0000000E-03
  1  129  154  2  177  209.270004  1305.357056  0.000100  1.000000          1.0000000E-03
  1  130  154  3  1  202.860001  1305.352783  0.000100  1.000000          1.0000000E-03
  1  131  154  3  2  200.009995  1305.348511  0.000100  1.000000          1.0000000E-03
  1  132  154  3  3  202.679993  1305.344360  0.000100  1.000000          1.0000000E-03
  1  133  154  3  4  207.649994  1305.340088  0.000100  1.000000          1.0000000E-03
  1  134  154  3  5  285.070007  1305.334961  0.000100  1.000000          1.0000000E-03
  1  134  153  3  6  202.770004  1305.329956  0.000100  1.000000          1.0000000E-03
  1  134  152  3  7  13.306000  1305.327637  0.000157  1.000000          1.0000000E-03
  1  135  152  3  8  187.479996  1305.325562  0.000100  1.000000          1.0000000E-03
  1  135  151  3  9  240.250000  1305.321167  0.000100  1.000000          1.0000000E-03
  1  135  150  3  10  114.330002  1305.317505  0.000100  1.000000          1.0000000E-03
  1  136  150  3  11  200.759995  1305.314209  0.000100  1.000000          1.0000000E-03
  1  137  150  3  12  93.632004  1305.311157  0.000100  1.000000          1.0000000E-03
  1  137  151  3  13  121.790001  1305.308838  0.000100  1.000000          1.0000000E-03
  1  138  151  3  14  248.220001  1305.305054  0.000100  1.000000          1.0000000E-03
  1  139  151  3  15  18.270000  1305.302246  0.000127  1.000000          1.0000000E-03
  1  139  152  3  16  204.399994  1305.299927  0.000100  1.000000          1.0000000E-03
  1  140  152  3  17  211.330002  1305.295654  0.000100  1.000000          1.0000000E-03
  1  141  152  3  18  130.649994  1305.292114  0.000100  1.000000          1.0000000E-03
  1  141  153  3  19  95.283997  1305.289673  0.000100  1.000000          1.0000000E-03
  1  142  153  3  20  210.830002  1305.286499  0.000100  1.000000          1.0000000E-03
  1  142  154  3  21  96.976997  1305.283325  0.000100  1.000000          1.0000000E-03
  1  143  154  3  22  183.899994  1305.280396  0.000100  1.000000          1.0000000E-03
  1  143  155  3  23  71.759003  1305.277832  0.000100  1.000000          1.0000000E-03
  1  144  155  3  24  206.009995  1305.274902  0.000100  1.000000          1.0000000E-03
  1  145  155  3  25  176.660004  1305.270874  0.000100  1.000000          1.0000000E-03
  1  145  154  3  26  62.266998  1305.268433  0.000100  1.000000          1.0000000E-03
  1  146  154  3  27  185.570007  1305.265869  0.000100  1.000000          1.0000000E-03
  1  146  153  3  28  226.190002  1305.261597  0.000100  1.000000          1.0000000E-03
  1  146  152  3  29  1.733000  1305.259155  0.001673  1.000000          1.0000000E-03
  1  147  152  3  30  277.220001  1305.256348  0.000100  1.000000          1.0000000E-03
  1  147  151  3  31  17.902000  1305.253296  0.000129  1.000000          1.0000000E-03
  1  148  151  3  32  205.179993  1305.250977  0.000100  1.000000          1.0000000E-03
  1  148  152  3  33  18.184000  1305.248657  0.000147  1.000000          1.0000000E-03
  1  149  152  3  34  239.789993  1305.245972  0.000100  1.000000          1.0000000E-03
  1  149  153  3  35  71.158997  1305.242676  0.000100  1.000000          1.0000000E-03
  1  150  153  3  36  207.759995  1305.239746  0.000100  1.000000          1.0000000E-03
  1  150  154  3  37  91.306000  1305.236694  0.000100  1.000000          1.0000000E-03
  1  151  154  3  38  163.669998  1305.234009  0.000100  1.000000          1.0000000E-03
  1  151  155  3  39  134.720001  1305.230957  0.000100  1.000000          1.0000000E-03
  1  152  155  3  40  140.679993  1305.228027  0.000100  1.000000          1.0000000E-03
  1  152  156  3  41  224.690002  1305.224243  0.000100  1.000000          1.0000000E-03
  1  152  157  3  42  206.380005  1305.219849  0.000100  1.000000          1.0000000E-03
  1  152  158  3  43  259.279999  1305.214966  0.000100  1.000000          1.0000000E-03
  1  151  158  3  44  10.297000  1305.212158  0.000241  1.000000          1.0000000E-03
  1  151  159  3  45  228.240006  1305.209717  0.000100  1.000000          1.0000000E-03
  1  151  160  3  46  200.300003  1305.205200  0.000100  1.000000          1.0000000E-03
  1  151  161  3  47  122.489998  1305.201904  0.000100  1.000000          1.0000000E-03
  1  152  161  3  48  188.179993  1305.198608  0.000100  1.000000          1.0000000E-03
  1  152  162  3  49  64.294998  1305.196045  0.000100  1.000000          1.0000000E-03
  1  153  162  3  50  222.729996  1305.192993  0.000100  1.000000          1.0000000E-03
  1  154  162  3  51  116.519997  1305.189453  0.000100  1.000000          1.0000000E-03
  1  154  163  3  52  126.000000  1305.187012  0.000100  1.000000          1.0000000E-03
  1  155  163  3  53  230.899994  1305.183228  0.000100  1.000000          1.0000000E-03
  1  156  163  3  54  27.552000  1305.180542  0.000100  1.000000          1.0000000E-03
  1  156  164  3  55  178.580002  1305.178467  0.000100  1.000000          1.0000000E-03
  1  157  164  3  56  7.769300  1305.176514  0.000359  1.000000          1.0000000E-03
  1  157  163  3  57  260.589996  1305.173706  0.000100  1.000000          1.0000000E-03
  1  157  162  3  58  202.919998  1305.168945  0.000100  1.000000          1.0000000E-03
  1  157  161  3  59  65.801002  1305.166138  0.000100  1.000000          1.0000000E-03
  1  158  161  3  60  135.710007  1305.164063  0.000100  1.000000          1.0000000E-03
  1  158  160  3  61  297.769989  1305.159546  0.000100  1.000000          1.0000000E-03
  1  159  160  3  62  38.957001  1305.156006  0.000100  1.000000          1.0000000E-03
  1  159  161  3  63  226.320007  1305.153320  0.000100  1.000000          1.0000000E-03