BEGIN Options
  Verbose = 3
  MessageFile = supply2_messages.txt
END Options

BEGIN Simulation
  SimCommand = "..\..\bin\mf2005dbl ..\data\supply2.nam"
END Simulation

BEGIN Model_Command_Lines
  command = ..\data\supply2_cmr.bat
  commandID = Supply2_cmr
END Model_Command_Lines

BEGIN Parallel_Control
  parallel=true  wait=0.2  
  VerboseRunner=4
  AutoStopRunners = true
  TimeOutFactor = 20.0
END Parallel_Control

BEGIN Parallel_Runners table
  nrow=4 ncol=3 columnlabels
  RunnerName  RunnerDir   RunTime
  Runner1     ..\Runner1\  0.5
  Runner2     ..\Runner2\  0.5
  Runner3     ..\Runner3\  0.5
  Runner4     ..\Runner4\  0.5
END Parallel_Runners
