"DEPENDENT NAME", "VALUE"
Q1c                 ,     1311.067138671875    
Q2c                 ,     1306.979492187500    
Q3c                 ,     1300.706909179688    
Q4c                 ,     1315.444213867188    
Q5c                 ,     1309.204589843750    
Q6c                 ,     1307.903198242188    
MODFLOW_STAT        ,     0.000000000000000    
DEWATER_STAT        ,     0.000000000000000    
