"DEPENDENT NAME", "VALUE"
Q1c                 ,     1311.094360351562    
Q2c                 ,     1306.997314453125    
Q3c                 ,     1300.540771484375    
Q4c                 ,     1315.457885742188    
Q5c                 ,     1309.292114257812    
Q6c                 ,     1307.921875000000    
MODFLOW_STAT        ,     0.000000000000000    
DEWATER_STAT        ,     0.000000000000000    
