"DEPENDENT NAME", "VALUE"
Q1c                 ,     1270.712280273438    
Q2c                 ,     1305.971801757812    
Q3c                 ,     1286.977294921875    
Q4c                 ,     1283.932495117188    
Q5c                 ,     1280.242675781250    
Q6c                 ,     1311.196166992188    
MODFLOW_STAT        ,     0.000000000000000    
DEWATER_STAT        ,     0.000000000000000    
