"DEPENDENT NAME", "VALUE"
Q1c                 ,     1311.015991210938    
Q2c                 ,     1306.981201171875    
Q3c                 ,     1300.706909179688    
Q4c                 ,     1315.442260742188    
Q5c                 ,     1309.264770507812    
Q6c                 ,     1307.904418945312    
MODFLOW_STAT        ,     0.000000000000000    
DEWATER_STAT        ,     0.000000000000000    
