"DEPENDENT NAME", "VALUE"
Q1c                 ,     1302.998657226562    
Q2c                 ,     1300.436401367188    
Q3c                 ,     1300.379516601562    
Q4c                 ,     1315.251586914062    
Q5c                 ,     1317.072021484375    
Q6c                 ,     1315.741210937500    
MODFLOW_STAT        ,     0.000000000000000    
DEWATER_STAT        ,     0.000000000000000    
