"DEPENDENT NAME", "VALUE"
Q1c                 ,     1301.020263671875    
Q2c                 ,     1304.109375000000    
Q3c                 ,     1314.288330078125    
Q4c                 ,     1308.529296875000    
Q5c                 ,     1308.129028320312    
Q6c                 ,     1317.699829101562    
MODFLOW_STAT        ,     0.000000000000000    
DEWATER_STAT        ,     0.000000000000000    
