"DEPENDENT NAME", "VALUE"
Q1c                 ,     1311.076782226562    
Q2c                 ,     1306.983398437500    
Q3c                 ,     1300.706298828125    
Q4c                 ,     1315.443481445312    
Q5c                 ,     1309.273315429688    
Q6c                 ,     1307.787109375000    
MODFLOW_STAT        ,     0.000000000000000    
DEWATER_STAT        ,     0.000000000000000    
