# MODFLOW-NWT Basic Package
# Aberdeen Groundwater Flow Model 2018
#   
FREE SHOWPROGRESS 
OPEN/CLOSE  ..\external_files\ibound\ib1.dat    1   (FREE)  -1     IBOUND Layer   1
OPEN/CLOSE  ..\external_files\ibound\ib2.dat    1   (FREE)  -1     IBOUND Layer   2
OPEN/CLOSE  ..\external_files\ibound\ib3.dat    1   (FREE)  -1     IBOUND Layer   3
OPEN/CLOSE  ..\external_files\ibound\ib4.dat    1   (FREE)  -1     IBOUND Layer   4
OPEN/CLOSE  ..\external_files\ibound\ib5.dat    1   (FREE)  -1     IBOUND Layer   5
OPEN/CLOSE  ..\external_files\ibound\ib6.dat    1   (FREE)  -1     IBOUND Layer   6
OPEN/CLOSE  ..\external_files\ibound\ib7.dat    1   (FREE)  -1     IBOUND Layer   7
 -999.000000
       -14     1.000(10e14.6)                   -1
       -14     1.000(10e14.6)                   -1
       -14     1.000(10e14.6)                   -1
       -14     1.000(10e14.6)                   -1
       -14     1.000(10e14.6)                   -1
       -14     1.000(10e14.6)                   -1
       -14     1.000(10e14.6)                   -1
