"DEPENDENT NAME", "VALUE"
Q1c                 ,     29.98055835820550    
Q2c                 ,     32.43283029118670    
Q3c                 ,     44.34188398907795    
Q4c                 ,     63.26898755375726    
S01_9               ,     112108.5055641881    
S01_10              ,     117847.2155141962    
S01_11              ,     111056.3790364543    
S01_12              ,     113107.2551346627    
S02_11              ,     116869.9553689809    
S02_12              ,     120212.8153239454    
S03_9               ,     46569.70196430180    
S03_10              ,     50063.53336721092    
S03_11              ,     45921.80310724942    
S03_12              ,     47389.86041167252    
S04_11              ,     163801.0422455253    
S04_12              ,     169062.9312427572    
MODFLOW_STAT        ,     0.000000000000000    
DEWATER_STAT        ,     0.000000000000000    
