"DEPENDENT NAME", "VALUE"
Q1c                 ,     17.11540224538935    
Q2c                 ,     38.44209367381137    
Q3c                 ,     42.03237475874979    
Q4c                 ,     38.18716406690055    
S01_9               ,     144276.8942025999    
S01_10              ,     151064.0601023199    
S01_11              ,     143199.9428039434    
S01_12              ,     146078.6121402431    
S02_11              ,     154506.6292027284    
S02_12              ,     158819.4301118985    
S03_9               ,     74338.95539836527    
S03_10              ,     77610.17862344503    
S03_11              ,     73638.75816004354    
S03_12              ,     75240.48090478673    
S04_11              ,     226487.4856905222    
S04_12              ,     233229.3108794276    
MODFLOW_STAT        ,     0.000000000000000    
DEWATER_STAT        ,     0.000000000000000    
