"DEPENDENT NAME", "VALUE"
Q1c                 ,     39.91673569619408    
Q2c                 ,     49.77719608559205    
Q3c                 ,     67.11183243310444    
Q4c                 ,     46.43834594764972    
S01_9               ,     106611.4261571676    
S01_10              ,     112359.8974516161    
S01_11              ,     105577.4017502347    
S01_12              ,     107634.7623495922    
S02_11              ,     107992.9833750954    
S02_12              ,     111346.3660893459    
S03_9               ,     58427.75006074076    
S03_10              ,     61924.77471406051    
S03_11              ,     57784.44791824598    
S03_12              ,     59254.43250577785    
S04_11              ,     165226.5235248865    
S04_12              ,     170500.9406678883    
MODFLOW_STAT        ,     0.000000000000000    
DEWATER_STAT        ,     0.000000000000000    
