"DEPENDENT NAME", "VALUE"
Q1c                 ,     50.36526831515303    
Q2c                 ,     42.72968697821278    
Q3c                 ,     41.84103577168116    
Q4c                 ,     38.94832943717407    
S01_9               ,     112438.9371053027    
S01_10              ,     118208.4060500992    
S01_11              ,     111438.6459784367    
S01_12              ,     113504.1534016789    
S02_11              ,     110840.5557618708    
S02_12              ,     114206.4338563617    
S03_9               ,     46515.59204941067    
S03_10              ,     50011.39768052069    
S03_11              ,     45871.70806175265    
S03_12              ,     47341.76550718474    
S04_11              ,     158089.2579667173    
S04_12              ,     163377.1104621937    
MODFLOW_STAT        ,     0.000000000000000    
DEWATER_STAT        ,     0.000000000000000    
