"DEPENDENT NAME", "VALUE"
Q1c                 ,     44.21603933518248    
Q2c                 ,     53.03120522083824    
Q4c                 ,     38.22580521555336    
Q1d                 ,     40.47080608604495    
Q2d                 ,     47.31784639560920    
Q4d                 ,     29.66189899387909    
S01_9               ,     150371.8227333184    
S01_10              ,     157159.0339964233    
S01_11              ,     149294.8937318125    
S01_12              ,     152173.5843945658    
S02_11              ,     175284.5625098654    
S02_12              ,     179597.6631297347    
S03_9               ,     71437.45668719873    
S03_10              ,     74703.99236338594    
S03_11              ,     70732.34795153381    
S03_12              ,     72333.79351460213    
S04_11              ,     250439.9255182853    
S04_12              ,     257182.0351201818    
MODFLOW_STAT        ,     0.000000000000000    
DEWATER_STAT        ,     0.000000000000000    
