"DEPENDENT NAME", "VALUE"
Q1c                 ,     51.78312653692261    
Q2c                 ,     42.96342179686227    
Q3c                 ,     32.72209534280930    
Q4c                 ,     34.32358854508135    
S01_9               ,     111781.2172873501    
S01_10              ,     117557.6533363537    
S01_11              ,     110793.3391024173    
S01_12              ,     112863.0563767441    
S02_11              ,     115128.2053554593    
S02_12              ,     118501.7755511823    
S03_9               ,     41725.73548346790    
S03_10              ,     45227.06333735343    
S03_11              ,     41090.57610367231    
S03_12              ,     42562.56876911990    
S04_11              ,     157366.9382705289    
S04_12              ,     162664.3163216060    
MODFLOW_STAT        ,     0.000000000000000    
DEWATER_STAT        ,     0.000000000000000    
