"DEPENDENT NAME", "VALUE"
S01_9               ,     532132.3159994086    
S01_10              ,     546620.8337221490    
S01_11              ,     535164.8651004534    
S01_12              ,     540823.6135182976    
S02_11              ,     753004.0571581669    
S02_12              ,     761268.1641643668    
S03_9               ,     275112.2883983073    
S03_10              ,     263574.3661350723    
S03_11              ,     274013.7352548338    
S03_12              ,     274414.1215798219    
S04_11              ,     1132681.701538185    
S04_12              ,     1138459.037817173    
MODFLOW_STAT        ,     0.000000000000000    
DEWATER_STAT        ,     0.000000000000000    
