"DEPENDENT NAME", "VALUE"
b_01                ,     48.08305746259254    
b_02                ,     62.01444860318318    
b_03                ,     68.48479292136666    
b_04                ,     44.61171167411474    
b_05                ,     57.18488006159668    
b_06                ,     64.58354666952060    
S01_9               ,     147785.4837243406    
S01_10              ,     154665.5728381125    
S01_11              ,     146848.7291892405    
S01_12              ,     149749.9022024973    
S02_11              ,     163150.3325112466    
S02_12              ,     167511.4989488519    
S03_9               ,     63577.90968483740    
S03_10              ,     67100.48155507111    
S03_11              ,     63205.53707001111    
S03_12              ,     64830.12938311816    
S04_11              ,     236706.1080060195    
S04_12              ,     243520.3364014358    
MODFLOW_STAT        ,     0.000000000000000    
DEWATER_STAT        ,     0.000000000000000    
