"DEPENDENT NAME", "VALUE"
Q1c                 ,     43.25003898024847    
Q2c                 ,     35.33351542968052    
Q3c                 ,     54.97763549721327    
Q4c                 ,     49.35674229133240    
S01_9               ,     109203.4237417408    
S01_10              ,     114972.8875592579    
S01_11              ,     108203.3584692786    
S01_12              ,     110268.6695794359    
S02_11              ,     114631.9883746691    
S02_12              ,     117998.0306251027    
S03_9               ,     41216.16540811629    
S03_10              ,     44712.10863672937    
S03_11              ,     40572.46870607244    
S03_12              ,     42042.44509476069    
S04_11              ,     157376.0958120752    
S04_12              ,     162664.3540259067    
MODFLOW_STAT        ,     0.000000000000000    
DEWATER_STAT        ,     0.000000000000000    
