"DEPENDENT NAME", "VALUE"
S01_9               ,     532741.2351857799    
S01_10              ,     541997.3392836195    
S01_11              ,     530028.8977464988    
S01_12              ,     535115.1811044664    
S02_11              ,     754665.3533790401    
S02_12              ,     762300.6097313305    
S03_9               ,     275425.4999282077    
S03_10              ,     279409.7022170348    
S03_11              ,     274183.9487829420    
S03_12              ,     276668.1151024032    
S04_11              ,     1137206.697571188    
S04_12              ,     1148729.393970154    
MODFLOW_STAT        ,     0.000000000000000    
DEWATER_STAT        ,     0.000000000000000    
