"DEPENDENT NAME", "VALUE"
Q1c                 ,     32.43202246198942    
Q2c                 ,     35.47840143555472    
Q3c                 ,     28.06467822243040    
Q4c                 ,     24.81794104202154    
S01_9               ,     116156.5756230565    
S01_10              ,     121942.2470275977    
S01_11              ,     115184.3626583575    
S01_12              ,     117258.6103545763    
S02_11              ,     120404.3521975261    
S02_12              ,     123785.6613388360    
S03_9               ,     46618.74989066037    
S03_10              ,     50123.04557376723    
S03_11              ,     45988.65408356347    
S03_12              ,     47461.83812644801    
S04_11              ,     165776.0338754574    
S04_12              ,     171082.5390354606    
MODFLOW_STAT        ,     0.000000000000000    
DEWATER_STAT        ,     0.000000000000000    
