"DEPENDENT NAME", "VALUE"
S01_9               ,     147622.5826593888    
S01_10              ,     154475.6963364468    
S01_11              ,     146636.4063866706    
S01_12              ,     149523.9384621849    
S02_11              ,     166877.3363844893    
S02_12              ,     171206.9139565948    
S03_9               ,     74190.53242874950    
S03_10              ,     77464.26279321084    
S03_11              ,     73493.77308602669    
S03_12              ,     75095.67852298504    
S04_11              ,     229898.9742452126    
S04_12              ,     236665.1949020910    
MODFLOW_STAT        ,     0.000000000000000    
DEWATER_STAT        ,     0.000000000000000    
