"DEPENDENT NAME", "VALUE"
Q1c                 ,     37.42200263990198    
Q2c                 ,     23.19923700330563    
Q3c                 ,     34.17630956627420    
Q4c                 ,     32.35962928845276    
S01_9               ,     116078.2526070416    
S01_10              ,     121866.5289835084    
S01_11              ,     115110.1553622375    
S01_12              ,     117185.2736303394    
S02_11              ,     120784.6349556943    
S02_12              ,     124167.3985140133    
S03_9               ,     45487.66497035076    
S03_10              ,     48992.05274346201    
S03_11              ,     44857.53514122634    
S03_12              ,     46330.79356943924    
S04_11              ,     166479.5987379427    
S04_12              ,     171787.9530665263    
MODFLOW_STAT        ,     0.000000000000000    
DEWATER_STAT        ,     0.000000000000000    
