"DEPENDENT NAME", "VALUE"
S01_9               ,     536349.7804931668    
S01_10              ,     549160.6717648391    
S01_11              ,     533613.7445352610    
S01_12              ,     543384.1172359949    
S02_11              ,     752945.3303779311    
S02_12              ,     770450.6213890318    
S03_9               ,     275388.9542322129    
S03_10              ,     279617.5695935734    
S03_11              ,     274145.8310471827    
S03_12              ,     276926.2891432542    
S04_11              ,     1130629.418694308    
S04_12              ,     1154204.842810883    
MODFLOW_STAT        ,     0.000000000000000    
DEWATER_STAT        ,     0.000000000000000    
