"DEPENDENT NAME", "VALUE"
Q1c                 ,     52.81069672812644    
Q2c                 ,     42.72746086871761    
Q3c                 ,     34.24537711790692    
Q4c                 ,     33.91217468498181    
S01_9               ,     112513.6094182417    
S01_10              ,     118288.1575512421    
S01_11              ,     111522.0223671078    
S01_12              ,     113590.1217375863    
S02_11              ,     113341.0122531097    
S02_12              ,     116711.9971288058    
S03_9               ,     51017.60103829733    
S03_10              ,     54518.08995106006    
S03_11              ,     50380.44891954258    
S03_12              ,     51852.08338150261    
S04_11              ,     163715.8140945796    
S04_12              ,     169010.6373370035    
MODFLOW_STAT        ,     0.000000000000000    
DEWATER_STAT        ,     0.000000000000000    
