"DEPENDENT NAME", "VALUE"
S01_9               ,     546152.3411304338    
S01_10              ,     555354.5407415933    
S01_11              ,     542843.6379694123    
S01_12              ,     548926.7617565093    
S02_11              ,     767605.8385743558    
S02_12              ,     777878.4594730954    
S03_9               ,     274591.0937980933    
S03_10              ,     278573.7075395198    
S03_11              ,     272476.1153025200    
S03_12              ,     275812.4345119935    
S04_11              ,     1126295.058885204    
S04_12              ,     1151318.491356717    
MODFLOW_STAT        ,     0.000000000000000    
DEWATER_STAT        ,     0.000000000000000    
