"DEPENDENT NAME", "VALUE"
S01_9               ,     546358.9356913108    
S01_10              ,     555519.1415360745    
S01_11              ,     543542.2929619078    
S01_12              ,     549495.5815837361    
S02_11              ,     770755.5050988059    
S02_12              ,     779946.0607354606    
S03_9               ,     275416.7134936414    
S03_10              ,     279384.8015076649    
S03_11              ,     274158.3963388237    
S03_12              ,     276815.6680876401    
S04_11              ,     1148904.658686091    
S04_12              ,     1163539.971866857    
MODFLOW_STAT        ,     0.000000000000000    
DEWATER_STAT        ,     0.000000000000000    
