"DEPENDENT NAME", "VALUE"
Q1c                 ,     44.29409201197546    
Q2c                 ,     38.76233332737289    
Q3c                 ,     46.98381949118953    
Q4c                 ,     53.10195199610625    
S01_9               ,     113974.4427312419    
S01_10              ,     119721.7387276054    
S01_11              ,     112934.9284912674    
S01_12              ,     114987.5753224011    
S02_11              ,     114538.3281343075    
S02_12              ,     117883.0304422537    
S03_9               ,     44876.30966162896    
S03_10              ,     48365.32152560481    
S03_11              ,     44220.80455564611    
S03_12              ,     45687.47244127039    
S04_11              ,     160681.0608201100    
S04_12              ,     165944.4846044289    
MODFLOW_STAT        ,     0.000000000000000    
DEWATER_STAT        ,     0.000000000000000    
