"DEPENDENT NAME", "VALUE"
Q1c                 ,     30.40049877794240    
Q2c                 ,     38.32557236065452    
Q3c                 ,     24.80585084765779    
Q4c                 ,     54.52066524500865    
S01_9               ,     109642.4895377047    
S01_10              ,     115418.1931181092    
S01_11              ,     108653.1854473190    
S01_12              ,     110722.3110690459    
S02_11              ,     114877.1567153523    
S02_12              ,     118249.1987382619    
S03_9               ,     53499.96487113912    
S03_10              ,     56999.93417402141    
S03_11              ,     52862.27013538706    
S03_12              ,     54333.98727055476    
S04_11              ,     169863.5987809542    
S04_12              ,     175159.2261293812    
MODFLOW_STAT        ,     0.000000000000000    
DEWATER_STAT        ,     0.000000000000000    
