"DEPENDENT NAME", "VALUE"
Q1c                 ,     55.64336881771538    
Q2c                 ,     45.74930394524122    
Q3c                 ,     50.19633595096998    
Q4c                 ,     45.44892707725048    
S01_9               ,     108693.6913873619    
S01_10              ,     114438.8361176922    
S01_11              ,     107652.3674773750    
S01_12              ,     109706.1206809687    
S02_11              ,     107246.2457259823    
S02_12              ,     110593.0716194477    
S03_9               ,     50022.57889499873    
S03_10              ,     53514.18561962050    
S03_11              ,     49371.03533833224    
S03_12              ,     50838.87618953185    
S04_11              ,     158381.4298910185    
S04_12              ,     163647.5789071300    
MODFLOW_STAT        ,     0.000000000000000    
DEWATER_STAT        ,     0.000000000000000    
