"DEPENDENT NAME", "VALUE"
S01_9               ,     544405.3650391769    
S01_10              ,     553637.7182512801    
S01_11              ,     541629.0125556424    
S01_12              ,     547270.7893545912    
S02_11              ,     761209.8150313260    
S02_12              ,     769818.6479257642    
S03_9               ,     262087.6359150980    
S03_10              ,     270059.0608500325    
S03_11              ,     260821.0752066009    
S03_12              ,     267802.5903231833    
S04_11              ,     1126391.771342407    
S04_12              ,     1143497.207354862    
MODFLOW_STAT        ,     0.000000000000000    
DEWATER_STAT        ,     0.000000000000000    
