"DEPENDENT NAME", "VALUE"
Q1c                 ,     26.01334960825887    
Q2c                 ,     42.63456499409558    
Q4c                 ,     35.97822027932094    
Q1d                 ,     28.20946987058148    
Q2d                 ,     40.41142983818214    
Q4d                 ,     33.52765508947765    
S01_9               ,     142957.7051239261    
S01_10              ,     149767.8475347270    
S01_11              ,     141911.6234758873    
S01_12              ,     144792.7709656552    
S02_11              ,     166070.8578708133    
S02_12              ,     170387.6203014143    
S03_9               ,     74462.30392285628    
S03_10              ,     77733.71742423436    
S03_11              ,     73762.70466988074    
S03_12              ,     75364.39032481852    
S04_11              ,     247471.8217341994    
S04_12              ,     254219.1712249802    
MODFLOW_STAT        ,     0.000000000000000    
DEWATER_STAT        ,     0.000000000000000    
