"DEPENDENT NAME", "VALUE"
S01_9               ,     544384.8643328027    
S01_10              ,     553640.3688863023    
S01_11              ,     541506.5198556652    
S01_12              ,     547128.8114342326    
S02_11              ,     760451.8287463710    
S02_12              ,     768988.9837862902    
S03_9               ,     262028.4069906383    
S03_10              ,     270525.7732081416    
S03_11              ,     260011.8147455710    
S03_12              ,     266912.5772386095    
S04_11              ,     1124740.531396342    
S04_12              ,     1141685.679198596    
MODFLOW_STAT        ,     0.000000000000000    
DEWATER_STAT        ,     0.000000000000000    
