"DEPENDENT NAME", "VALUE"
S01_9               ,     544404.4491197913    
S01_10              ,     553642.2875864004    
S01_11              ,     541629.9373507260    
S01_12              ,     547266.2204768953    
S02_11              ,     761214.5811086249    
S02_12              ,     769780.0363748884    
S03_9               ,     262063.1420367227    
S03_10              ,     270527.7813047325    
S03_11              ,     260845.8270669348    
S03_12              ,     267333.8920318988    
S04_11              ,     1126422.474568867    
S04_12              ,     1142978.009134547    
MODFLOW_STAT        ,     0.000000000000000    
DEWATER_STAT        ,     0.000000000000000    
