"DEPENDENT NAME", "VALUE"
Q1c                 ,     25.77327477832335    
Q2c                 ,     24.85311317263767    
Q3c                 ,     28.11803332614303    
Q4c                 ,     22.31075552110019    
S01_9               ,     145704.2455139347    
S01_10              ,     152491.2503555774    
S01_11              ,     144627.0945601134    
S01_12              ,     147505.7490121406    
S02_11              ,     161959.2726059537    
S02_12              ,     166272.1482376198    
S03_9               ,     74313.42455289695    
S03_10              ,     77584.54046616676    
S03_11              ,     73613.23567007857    
S03_12              ,     75214.91973975727    
S04_11              ,     231173.6293122852    
S04_12              ,     237915.5869015088    
MODFLOW_STAT        ,     0.000000000000000    
DEWATER_STAT        ,     0.000000000000000    
