"DEPENDENT NAME", "VALUE"
Q1c                 ,     56.49728376314392    
Q2c                 ,     53.02947330061411    
Q3c                 ,     53.35757008240925    
Q4c                 ,     31.49169887904293    
S01_9               ,     150371.5013340062    
S01_10              ,     157158.8997340970    
S01_11              ,     149294.8392621821    
S01_12              ,     152173.5625798999    
S02_11              ,     175284.4514481089    
S02_12              ,     179597.6223195005    
S03_9               ,     71432.33681104092    
S03_10              ,     74703.15160882704    
S03_11              ,     70732.19835792230    
S03_12              ,     72333.76456591174    
S04_11              ,     250439.6001085254    
S04_12              ,     257181.9516702986    
MODFLOW_STAT        ,     0.000000000000000    
DEWATER_STAT        ,     0.000000000000000    
