"DEPENDENT NAME", "VALUE"
S01_9               ,     544601.5379979716    
S01_10              ,     556208.8108297769    
S01_11              ,     544351.0996363959    
S01_12              ,     549959.1686468453    
S02_11              ,     772999.0539601839    
S02_12              ,     781267.7797950153    
S03_9               ,     275900.8968020244    
S03_10              ,     280034.9514976612    
S03_11              ,     274820.8576281554    
S03_12              ,     277321.8136565164    
S04_11              ,     1156281.619613579    
S04_12              ,     1168459.444029804    
MODFLOW_STAT        ,     0.000000000000000    
DEWATER_STAT        ,     0.000000000000000    
