"DEPENDENT NAME", "VALUE"
Q1c                 ,     37.84194373427558    
Q2c                 ,     61.20732327043806    
Q4c                 ,     58.31254923016737    
S01_9               ,     137294.1342880610    
S01_10              ,     144078.1199640456    
S01_11              ,     136213.0368740915    
S01_12              ,     139091.0084897247    
S02_11              ,     157717.4226437585    
S02_12              ,     162029.2057412185    
S03_9               ,     73560.07739480022    
S03_10              ,     76830.76523293181    
S03_11              ,     72859.34051987511    
S03_12              ,     74460.94119787033    
S04_11              ,     241123.8049500236    
S04_12              ,     247864.6492727231    
MODFLOW_STAT        ,     0.000000000000000    
DEWATER_STAT        ,     0.000000000000000    
