"DEPENDENT NAME", "VALUE"
Q1c                 ,     47.36138573684869    
Q2c                 ,     59.59471411277903    
Q3c                 ,     44.01945713885866    
Q4c                 ,     46.69717414185620    
S01_9               ,     107562.4968822450    
S01_10              ,     113313.1238613935    
S01_11              ,     106531.1805172375    
S01_12              ,     108588.5358560421    
S02_11              ,     109073.1845509871    
S02_12              ,     112427.2134107218    
S03_9               ,     58946.52245411010    
S03_10              ,     62444.71586423302    
S03_11              ,     58304.89437621026    
S03_12              ,     59775.08683733149    
S04_11              ,     168888.8932277886    
S04_12              ,     174164.6822575127    
MODFLOW_STAT        ,     0.000000000000000    
DEWATER_STAT        ,     0.000000000000000    
