"DEPENDENT NAME", "VALUE"
Q1c                 ,     47.31662686979627    
Q2c                 ,     56.72709857825237    
Q3c                 ,     41.43638859460253    
Q4c                 ,     62.27566570154486    
S01_9               ,     103563.8847440855    
S01_10              ,     109320.4457556419    
S01_11              ,     102541.6546013997    
S01_12              ,     104600.2831224117    
S02_11              ,     107774.0311542824    
S02_12              ,     111129.1027026495    
S03_9               ,     57862.73348963063    
S03_10              ,     61358.00456817280    
S03_11              ,     57216.54135738206    
S03_12              ,     58685.75181427076    
S04_11              ,     167872.2169281734    
S04_12              ,     173148.7533758616    
MODFLOW_STAT        ,     0.000000000000000    
DEWATER_STAT        ,     0.000000000000000    
