# MODFLOW2000 Constant-Head Boundary Package (CHD)				
1327				
1327	0			
2	1	62	1334.80	1334.80
2	1	63	1334.36	1334.36
2	1	64	1333.82	1333.82
2	1	65	1333.23	1333.23
2	1	66	1332.58	1332.58
2	1	67	1331.89	1331.89
2	1	68	1331.17	1331.17
2	1	69	1330.41	1330.41
2	1	70	1329.63	1329.63
2	1	71	1329.69	1329.69
2	1	72	1329.75	1329.75
2	1	73	1330.67	1330.67
2	1	74	1331.57	1331.57
2	1	75	1332.47	1332.47
2	1	76	1333.35	1333.35
2	1	77	1334.23	1334.23
2	1	78	1335.09	1335.09
2	1	79	1335.95	1335.95
2	1	80	1336.79	1336.79
2	1	81	1337.63	1337.63
2	1	82	1338.44	1338.44
2	1	83	1339.23	1339.23
2	1	84	1340.01	1340.01
2	1	85	1340.75	1340.75
2	1	86	1341.49	1341.49
2	1	87	1342.19	1342.19
2	1	88	1342.87	1342.87
2	1	89	1343.53	1343.53
2	1	90	1344.16	1344.16
2	1	91	1344.77	1344.77
2	1	92	1345.34	1345.34
2	1	93	1345.88	1345.88
2	1	94	1346.40	1346.40
2	1	95	1346.89	1346.89
2	1	96	1347.35	1347.35
2	1	97	1347.79	1347.79
2	1	98	1348.19	1348.19
2	1	99	1348.57	1348.57
2	1	100	1348.91	1348.91
2	1	101	1349.24	1349.24
2	1	102	1349.57	1349.57
2	1	103	1349.88	1349.88
2	1	104	1350.19	1350.19
2	1	105	1350.49	1350.49
2	1	106	1350.78	1350.78
2	1	107	1351.06	1351.06
2	1	108	1351.30	1351.30
2	1	109	1351.54	1351.54
2	1	110	1351.76	1351.76
2	1	111	1351.98	1351.98
2	1	112	1352.19	1352.19
2	1	113	1352.38	1352.38
2	1	114	1352.57	1352.57
2	1	115	1352.75	1352.75
2	1	116	1352.93	1352.93
2	1	117	1353.09	1353.09
2	1	118	1353.25	1353.25
2	1	119	1353.41	1353.41
2	1	120	1353.55	1353.55
2	1	121	1353.69	1353.69
2	1	122	1353.82	1353.82
2	1	123	1353.94	1353.94
2	1	124	1354.05	1354.05
2	1	125	1354.15	1354.15
2	1	126	1354.24	1354.24
2	1	127	1354.32	1354.32
2	1	128	1354.39	1354.39
2	1	129	1354.44	1354.44
2	1	130	1354.46	1354.46
2	1	131	1354.42	1354.42
2	1	132	1354.37	1354.37
2	1	133	1354.32	1354.32
2	1	134	1354.26	1354.26
2	1	135	1354.19	1354.19
2	1	136	1354.12	1354.12
2	1	137	1354.04	1354.04
2	1	138	1353.95	1353.95
2	1	139	1353.86	1353.86
2	1	140	1353.76	1353.76
2	1	141	1353.66	1353.66
2	1	142	1353.55	1353.55
2	1	143	1353.43	1353.43
2	1	144	1353.31	1353.31
2	1	145	1353.18	1353.18
2	1	146	1353.05	1353.05
2	1	147	1352.91	1352.91
2	1	148	1352.77	1352.77
2	1	149	1352.62	1352.62
2	1	150	1352.46	1352.46
2	1	151	1352.30	1352.30
2	1	152	1352.14	1352.14
2	1	153	1351.96	1351.96
2	1	154	1351.79	1351.79
2	1	155	1351.61	1351.61
2	1	156	1351.42	1351.42
2	1	157	1351.23	1351.23
2	1	158	1351.03	1351.03
2	1	159	1350.83	1350.83
2	1	160	1350.62	1350.62
2	1	161	1350.41	1350.41
2	1	162	1350.19	1350.19
2	1	163	1349.97	1349.97
2	1	164	1349.74	1349.74
2	1	165	1349.51	1349.51
2	1	166	1349.27	1349.27
2	1	167	1349.03	1349.03
2	1	168	1348.79	1348.79
2	1	169	1348.54	1348.54
2	1	170	1348.28	1348.28
2	1	171	1348.02	1348.02
2	1	172	1347.75	1347.75
2	1	173	1347.48	1347.48
2	1	174	1347.21	1347.21
2	1	175	1346.93	1346.93
2	1	176	1346.65	1346.65
2	1	177	1346.36	1346.36
2	1	178	1346.06	1346.06
2	1	179	1345.77	1345.77
2	1	180	1345.46	1345.46
2	1	181	1345.16	1345.16
2	1	182	1344.85	1344.85
2	1	183	1344.53	1344.53
2	1	184	1344.21	1344.21
2	1	185	1343.88	1343.88
2	1	186	1343.55	1343.55
2	1	187	1343.22	1343.22
2	1	188	1342.88	1342.88
2	1	189	1342.54	1342.54
2	1	190	1342.19	1342.19
2	1	191	1341.84	1341.84
2	1	192	1341.48	1341.48
2	1	193	1341.12	1341.12
2	1	194	1340.76	1340.76
2	1	195	1340.39	1340.39
2	1	196	1340.02	1340.02
2	1	197	1339.64	1339.64
2	1	198	1339.26	1339.26
2	1	199	1338.87	1338.87
2	1	200	1338.48	1338.48
2	1	201	1338.08	1338.08
2	1	202	1337.68	1337.68
2	1	203	1337.28	1337.28
2	1	204	1336.87	1336.87
2	1	205	1336.46	1336.46
2	1	206	1336.04	1336.04
2	1	207	1335.62	1335.62
2	1	208	1335.20	1335.20
2	1	209	1334.77	1334.77
2	1	210	1334.35	1334.35
2	1	211	1333.92	1333.92
2	1	212	1333.48	1333.48
2	1	213	1333.05	1333.05
2	1	214	1332.62	1332.62
2	1	215	1332.18	1332.18
2	1	216	1331.73	1331.73
2	1	217	1331.29	1331.29
2	1	218	1330.84	1330.84
2	1	219	1330.39	1330.39
2	1	220	1329.94	1329.94
2	1	221	1329.49	1329.49
2	1	222	1329.03	1329.03
2	1	223	1328.57	1328.57
2	1	224	1328.11	1328.11
2	1	225	1327.64	1327.64
2	1	226	1327.18	1327.18
2	1	227	1326.71	1326.71
2	1	228	1326.24	1326.24
2	1	229	1325.77	1325.77
2	1	230	1325.29	1325.29
2	1	231	1324.82	1324.82
2	1	232	1324.34	1324.34
2	1	233	1323.86	1323.86
2	1	234	1323.36	1323.36
2	1	235	1322.87	1322.87
2	1	236	1322.36	1322.36
2	1	237	1321.85	1321.85
2	1	238	1321.33	1321.33
2	1	239	1320.81	1320.81
2	1	240	1320.27	1320.27
2	1	241	1319.73	1319.73
2	1	242	1319.18	1319.18
2	1	243	1318.62	1318.62
2	1	244	1318.06	1318.06
2	1	245	1317.49	1317.49
2	1	246	1316.91	1316.91
2	1	247	1316.33	1316.33
2	1	248	1315.74	1315.74
2	1	249	1315.14	1315.14
2	1	250	1314.53	1314.53
2	1	251	1313.92	1313.92
2	1	252	1313.30	1313.30
2	1	253	1312.67	1312.67
2	1	254	1312.04	1312.04
2	1	255	1311.39	1311.39
2	1	256	1310.74	1310.74
2	1	257	1310.18	1310.18
2	1	258	1309.62	1309.62
2	1	259	1309.08	1309.08
2	1	260	1308.54	1308.54
2	1	261	1308.02	1308.02
2	1	262	1307.49	1307.49
2	1	263	1306.98	1306.98
2	1	264	1306.47	1306.47
2	1	265	1305.98	1305.98
2	1	266	1305.48	1305.48
2	1	267	1305.00	1305.00
2	1	268	1304.52	1304.52
2	1	269	1304.04	1304.04
2	1	270	1303.57	1303.57
2	1	271	1303.10	1303.10
2	1	272	1302.64	1302.64
2	1	273	1302.18	1302.18
2	1	274	1301.73	1301.73
2	1	275	1301.29	1301.29
2	1	276	1300.85	1300.85
2	1	277	1300.42	1300.42
2	1	278	1300.00	1300.00
2	1	279	1299.57	1299.57
2	1	280	1299.16	1299.16
2	1	281	1298.77	1298.77
2	1	282	1298.38	1298.38
2	1	283	1298.01	1298.01
2	1	284	1297.63	1297.63
2	1	285	1297.27	1297.27
2	1	286	1296.92	1296.92
2	1	287	1296.58	1296.58
2	1	288	1296.25	1296.25
2	1	289	1295.92	1295.92
2	1	290	1295.60	1295.60
2	1	291	1295.30	1295.30
2	1	292	1295.01	1295.01
2	1	293	1294.72	1294.72
2	1	294	1294.45	1294.45
2	1	295	1294.19	1294.19
2	1	296	1293.93	1293.93
2	1	297	1293.69	1293.69
2	1	298	1293.46	1293.46
2	1	299	1293.24	1293.24
2	1	300	1293.03	1293.03
2	1	301	1292.83	1292.83
2	1	302	1292.64	1292.64
2	1	303	1292.46	1292.46
2	1	304	1292.27	1292.27
2	1	305	1292.11	1292.11
2	1	306	1291.95	1291.95
2	1	307	1291.80	1291.80
2	1	308	1291.65	1291.65
2	1	309	1291.52	1291.52
2	1	310	1291.40	1291.40
2	1	311	1291.28	1291.28
2	1	312	1291.18	1291.18
2	1	313	1291.09	1291.09
2	1	314	1290.99	1290.99
2	1	315	1290.91	1290.91
2	1	316	1290.83	1290.83
2	1	317	1290.75	1290.75
2	1	318	1290.67	1290.67
2	1	319	1290.59	1290.59
2	1	320	1290.54	1290.54
2	1	321	1290.48	1290.48
2	1	322	1290.43	1290.43
2	1	323	1290.38	1290.38
2	1	324	1290.33	1290.33
2	1	325	1290.27	1290.27
2	1	326	1290.23	1290.23
2	1	327	1290.19	1290.19
2	1	328	1290.14	1290.14
2	1	329	1290.10	1290.10
2	1	330	1290.05	1290.05
2	1	331	1290.01	1290.01
2	1	332	1289.97	1289.97
2	1	333	1289.94	1289.94
2	1	334	1289.90	1289.90
2	1	335	1289.87	1289.87
2	1	336	1289.84	1289.84
2	1	337	1289.81	1289.81
2	1	338	1289.77	1289.77
2	1	339	1289.75	1289.75
2	1	340	1289.72	1289.72
2	1	341	1289.69	1289.69
2	1	342	1289.66	1289.66
2	1	343	1289.64	1289.64
2	1	344	1289.62	1289.62
2	1	345	1289.60	1289.60
2	1	346	1289.58	1289.58
2	1	347	1289.56	1289.56
2	1	348	1289.54	1289.54
2	1	349	1289.53	1289.53
2	1	350	1289.52	1289.52
2	1	351	1289.50	1289.50
2	1	352	1289.49	1289.49
2	1	353	1289.47	1289.47
2	1	354	1289.47	1289.47
2	1	355	1289.45	1289.45
2	1	356	1289.44	1289.44
2	1	357	1289.43	1289.43
2	1	358	1289.42	1289.42
2	1	359	1289.41	1289.41
2	1	360	1289.40	1289.40
2	1	361	1289.39	1289.39
2	1	362	1289.38	1289.38
2	1	363	1289.37	1289.37
2	1	364	1289.36	1289.36
2	1	365	1289.35	1289.35
2	1	366	1289.35	1289.35
2	1	367	1289.34	1289.34
2	1	368	1289.33	1289.33
2	1	369	1289.33	1289.33
2	1	370	1289.32	1289.32
2	1	371	1289.32	1289.32
2	1	372	1289.31	1289.31
2	368	43	1314.00	1314.00
2	368	44	1313.89	1313.89
2	368	45	1313.77	1313.77
2	368	46	1313.66	1313.66
2	368	47	1313.54	1313.54
2	368	48	1313.42	1313.42
2	368	49	1313.29	1313.29
2	368	50	1313.17	1313.17
2	368	51	1313.05	1313.05
2	368	52	1312.92	1312.92
2	368	53	1312.79	1312.79
2	368	54	1312.66	1312.66
2	368	55	1312.53	1312.53
2	368	56	1312.38	1312.38
2	368	57	1312.25	1312.25
2	368	58	1312.11	1312.11
2	368	59	1311.97	1311.97
2	368	60	1311.82	1311.82
2	368	61	1311.67	1311.67
2	368	62	1311.51	1311.51
2	368	63	1311.35	1311.35
2	368	64	1311.19	1311.19
2	368	65	1311.03	1311.03
2	368	66	1310.86	1310.86
2	368	67	1310.68	1310.68
2	368	68	1310.50	1310.50
2	368	69	1310.32	1310.32
2	368	70	1310.13	1310.13
2	368	71	1309.93	1309.93
2	368	72	1309.73	1309.73
2	368	73	1309.53	1309.53
2	368	74	1309.31	1309.31
2	368	75	1309.09	1309.09
2	368	76	1308.86	1308.86
2	368	77	1308.62	1308.62
2	368	78	1308.37	1308.37
2	368	79	1308.12	1308.12
2	368	80	1307.84	1307.84
2	368	81	1307.57	1307.57
2	368	82	1307.27	1307.27
2	368	83	1306.96	1306.96
2	368	84	1306.90	1306.90
2	368	85	1306.85	1306.85
2	368	86	1306.79	1306.79
2	368	87	1306.73	1306.73
2	368	88	1306.66	1306.66
2	368	89	1306.61	1306.61
2	368	90	1306.54	1306.54
2	368	91	1306.47	1306.47
2	368	92	1306.40	1306.40
2	368	93	1306.33	1306.33
2	368	94	1306.26	1306.26
2	368	95	1306.19	1306.19
2	368	96	1306.11	1306.11
2	368	97	1306.03	1306.03
2	368	98	1305.95	1305.95
2	368	99	1305.85	1305.85
2	368	100	1305.77	1305.77
2	368	101	1305.68	1305.68
2	368	102	1305.58	1305.58
2	368	103	1305.49	1305.49
2	368	104	1305.39	1305.39
2	368	105	1305.29	1305.29
2	368	106	1305.18	1305.18
2	368	107	1305.03	1305.03
2	368	108	1304.88	1304.88
2	368	109	1304.71	1304.71
2	368	110	1304.55	1304.55
2	368	111	1304.38	1304.38
2	368	112	1304.20	1304.20
2	368	113	1304.01	1304.01
2	368	114	1303.82	1303.82
2	368	115	1303.61	1303.61
2	368	116	1303.41	1303.41
2	368	117	1303.20	1303.20
2	368	118	1302.97	1302.97
2	368	119	1302.74	1302.74
2	368	120	1302.49	1302.49
2	368	121	1302.23	1302.23
2	368	122	1301.95	1301.95
2	368	123	1301.67	1301.67
2	368	124	1301.37	1301.37
2	368	125	1301.05	1301.05
2	368	126	1300.71	1300.71
2	368	127	1300.35	1300.35
2	368	128	1300.01	1300.01
2	368	129	1299.69	1299.69
2	368	130	1299.40	1299.40
2	368	131	1299.11	1299.11
2	368	132	1298.81	1298.81
2	368	133	1298.51	1298.51
2	368	134	1298.20	1298.20
2	368	135	1297.90	1297.90
2	368	136	1297.61	1297.61
2	368	137	1297.32	1297.32
2	368	138	1297.04	1297.04
2	368	139	1296.77	1296.77
2	368	140	1296.50	1296.50
2	368	141	1296.23	1296.23
2	368	142	1295.97	1295.97
2	368	143	1295.72	1295.72
2	368	144	1295.47	1295.47
2	368	145	1295.23	1295.23
2	368	146	1294.99	1294.99
2	368	147	1294.76	1294.76
2	368	148	1294.54	1294.54
2	368	149	1294.33	1294.33
2	368	150	1294.12	1294.12
2	368	151	1293.92	1293.92
2	368	152	1293.73	1293.73
2	368	153	1293.55	1293.55
2	368	154	1293.37	1293.37
2	368	155	1293.20	1293.20
2	368	156	1293.04	1293.04
2	368	157	1292.88	1292.88
2	368	158	1292.73	1292.73
2	368	159	1292.59	1292.59
2	368	160	1292.45	1292.45
2	368	161	1292.31	1292.31
2	368	162	1292.18	1292.18
2	368	163	1292.04	1292.04
2	368	164	1291.90	1291.90
2	368	165	1291.77	1291.77
2	368	166	1291.63	1291.63
2	368	167	1291.50	1291.50
2	368	168	1291.37	1291.37
2	368	169	1291.24	1291.24
2	368	170	1291.11	1291.11
2	368	171	1290.98	1290.98
2	368	172	1290.85	1290.85
2	368	173	1290.72	1290.72
2	368	174	1290.59	1290.59
2	368	175	1290.46	1290.46
2	368	176	1290.33	1290.33
2	368	177	1290.20	1290.20
2	368	178	1290.08	1290.08
2	368	179	1289.95	1289.95
2	368	180	1289.83	1289.83
2	368	181	1289.70	1289.70
2	368	182	1289.58	1289.58
2	368	183	1289.45	1289.45
2	368	184	1289.33	1289.33
2	368	185	1289.21	1289.21
2	368	186	1289.09	1289.09
2	368	187	1288.97	1288.97
2	368	188	1288.85	1288.85
2	368	189	1288.73	1288.73
2	368	190	1288.61	1288.61
2	368	191	1288.49	1288.49
2	368	192	1288.38	1288.38
2	368	193	1288.26	1288.26
2	368	194	1288.14	1288.14
2	368	195	1288.02	1288.02
2	368	196	1287.91	1287.91
2	368	197	1287.80	1287.80
2	368	198	1287.67	1287.67
2	368	199	1287.58	1287.58
2	368	200	1287.48	1287.48
2	368	201	1287.39	1287.39
2	368	202	1287.30	1287.30
2	368	203	1287.20	1287.20
2	368	204	1287.11	1287.11
2	368	205	1287.02	1287.02
2	368	206	1286.93	1286.93
2	368	207	1286.84	1286.84
2	368	208	1286.76	1286.76
2	368	209	1286.67	1286.67
2	368	210	1286.58	1286.58
2	368	211	1286.49	1286.49
2	368	212	1286.41	1286.41
2	368	213	1286.33	1286.33
2	368	214	1286.24	1286.24
2	368	215	1286.16	1286.16
2	368	216	1286.07	1286.07
2	368	217	1285.99	1285.99
2	368	218	1285.91	1285.91
2	368	219	1285.82	1285.82
2	368	220	1285.74	1285.74
2	368	221	1285.66	1285.66
2	368	222	1285.58	1285.58
2	368	223	1285.50	1285.50
2	368	224	1285.42	1285.42
2	368	225	1285.34	1285.34
2	368	226	1285.25	1285.25
2	368	227	1285.17	1285.17
2	368	228	1285.10	1285.10
2	368	229	1285.02	1285.02
2	368	230	1284.94	1284.94
2	368	231	1284.85	1284.85
2	368	232	1284.78	1284.78
2	368	233	1284.71	1284.71
2	368	234	1284.63	1284.63
2	368	235	1284.55	1284.55
2	368	236	1284.47	1284.47
2	368	237	1284.40	1284.40
2	368	238	1284.32	1284.32
2	368	239	1284.25	1284.25
2	368	240	1284.18	1284.18
2	368	241	1284.08	1284.08
2	368	242	1283.99	1283.99
2	368	243	1283.90	1283.90
2	368	244	1283.81	1283.81
2	368	245	1283.72	1283.72
2	368	246	1283.64	1283.64
2	368	247	1283.54	1283.54
2	368	248	1283.46	1283.46
2	368	249	1283.38	1283.38
2	368	250	1283.30	1283.30
2	368	251	1283.20	1283.20
2	368	252	1283.13	1283.13
2	368	253	1283.04	1283.04
2	368	254	1282.96	1282.96
2	368	255	1282.89	1282.89
2	368	256	1282.81	1282.81
2	368	257	1282.73	1282.73
2	368	258	1282.64	1282.64
2	368	259	1282.57	1282.57
2	368	260	1282.49	1282.49
2	368	261	1282.41	1282.41
2	368	262	1282.34	1282.34
2	368	263	1282.26	1282.26
2	368	264	1282.18	1282.18
2	368	265	1282.11	1282.11
2	368	266	1282.03	1282.03
2	368	267	1281.95	1281.95
2	368	268	1281.89	1281.89
2	368	269	1281.80	1281.80
2	368	270	1281.74	1281.74
2	368	271	1281.66	1281.66
2	368	272	1281.59	1281.59
2	368	273	1281.52	1281.52
2	368	274	1281.45	1281.45
2	368	275	1281.38	1281.38
2	368	276	1281.30	1281.30
2	368	277	1281.23	1281.23
2	368	278	1281.16	1281.16
2	368	279	1281.09	1281.09
2	368	280	1281.02	1281.02
2	368	281	1280.95	1280.95
2	368	282	1280.88	1280.88
2	368	283	1280.81	1280.81
2	368	284	1280.74	1280.74
2	368	285	1280.67	1280.67
2	368	286	1280.59	1280.59
2	368	287	1280.52	1280.52
2	368	288	1280.45	1280.45
2	368	289	1280.38	1280.38
2	368	290	1280.30	1280.30
2	368	291	1280.23	1280.23
2	368	292	1280.15	1280.15
2	368	293	1280.08	1280.08
2	368	294	1280.00	1280.00
2	368	295	1279.92	1279.92
2	368	296	1279.85	1279.85
2	368	297	1279.77	1279.77
2	368	298	1279.69	1279.69
2	368	299	1279.61	1279.61
2	368	300	1279.53	1279.53
2	368	301	1279.45	1279.45
2	368	302	1279.36	1279.36
2	368	303	1279.28	1279.28
2	368	304	1279.19	1279.19
2	368	305	1279.11	1279.11
2	368	306	1279.02	1279.02
2	368	307	1278.93	1278.93
2	368	308	1278.85	1278.85
2	368	309	1278.76	1278.76
2	368	310	1278.68	1278.68
2	368	311	1278.59	1278.59
2	368	312	1278.50	1278.50
2	368	313	1278.41	1278.41
2	368	314	1278.32	1278.32
2	368	315	1278.23	1278.23
2	368	316	1278.14	1278.14
2	368	317	1278.05	1278.05
2	368	318	1277.96	1277.96
2	368	319	1277.86	1277.86
2	368	320	1277.77	1277.77
2	368	321	1277.67	1277.67
2	368	322	1277.58	1277.58
2	368	323	1277.49	1277.49
2	368	324	1277.39	1277.39
2	368	325	1277.30	1277.30
2	368	326	1277.20	1277.20
2	368	327	1277.10	1277.10
2	368	328	1277.01	1277.01
2	368	329	1276.91	1276.91
2	368	330	1276.81	1276.81
2	368	331	1276.71	1276.71
2	368	332	1276.62	1276.62
2	368	333	1276.52	1276.52
2	368	334	1276.42	1276.42
2	368	335	1276.31	1276.31
2	368	336	1276.21	1276.21
2	368	337	1276.11	1276.11
2	368	338	1276.01	1276.01
2	368	339	1275.90	1275.90
2	368	340	1275.81	1275.81
2	368	341	1275.70	1275.70
2	368	342	1275.60	1275.60
2	368	343	1275.50	1275.50
2	368	344	1275.40	1275.40
2	368	345	1275.29	1275.29
2	368	346	1275.19	1275.19
2	368	347	1275.09	1275.09
2	368	348	1274.99	1274.99
4	1	201	1341.47	1341.47
4	1	202	1341.13	1341.13
4	1	203	1340.78	1340.78
4	1	204	1340.43	1340.43
4	1	205	1340.07	1340.07
4	1	206	1339.71	1339.71
4	1	207	1339.35	1339.35
4	1	208	1338.98	1338.98
4	1	209	1338.60	1338.60
4	1	210	1338.23	1338.23
4	1	211	1337.84	1337.84
4	1	212	1337.46	1337.46
4	1	213	1337.07	1337.07
4	1	214	1336.67	1336.67
4	1	215	1336.27	1336.27
4	1	216	1335.87	1335.87
4	1	217	1335.46	1335.46
4	1	218	1335.05	1335.05
4	1	219	1334.63	1334.63
4	1	220	1334.21	1334.21
4	1	221	1333.78	1333.78
4	1	222	1333.35	1333.35
4	1	223	1332.91	1332.91
4	1	224	1332.47	1332.47
4	1	225	1332.02	1332.02
4	1	226	1331.57	1331.57
4	1	227	1331.12	1331.12
4	1	228	1330.66	1330.66
4	1	229	1330.20	1330.20
4	1	230	1329.73	1329.73
4	1	231	1329.26	1329.26
4	1	232	1328.79	1328.79
4	1	233	1328.31	1328.31
4	1	234	1327.83	1327.83
4	1	235	1327.34	1327.34
4	1	236	1326.85	1326.85
4	1	237	1326.36	1326.36
4	1	238	1325.86	1325.86
4	1	239	1325.35	1325.35
4	1	240	1324.85	1324.85
4	1	241	1324.34	1324.34
4	1	242	1323.82	1323.82
4	1	243	1323.30	1323.30
4	1	244	1322.78	1322.78
4	1	245	1322.25	1322.25
4	1	246	1321.72	1321.72
4	1	247	1321.19	1321.19
4	1	248	1320.65	1320.65
4	1	249	1320.11	1320.11
4	1	250	1319.55	1319.55
4	1	251	1318.99	1318.99
4	1	252	1318.42	1318.42
4	1	253	1317.85	1317.85
4	1	254	1317.26	1317.26
4	1	255	1316.67	1316.67
4	1	256	1316.07	1316.07
4	1	257	1315.47	1315.47
4	1	258	1314.86	1314.86
4	1	259	1314.24	1314.24
4	1	260	1313.62	1313.62
4	1	261	1312.99	1312.99
4	1	262	1312.36	1312.36
4	1	263	1311.73	1311.73
4	1	264	1311.09	1311.09
4	1	265	1310.45	1310.45
4	1	266	1309.79	1309.79
4	1	267	1309.13	1309.13
4	1	268	1308.48	1308.48
4	1	269	1307.85	1307.85
4	1	270	1307.26	1307.26
4	1	271	1306.68	1306.68
4	1	272	1306.12	1306.12
4	1	273	1305.57	1305.57
4	1	274	1305.04	1305.04
4	1	275	1304.53	1304.53
4	1	276	1304.16	1304.16
4	1	277	1303.79	1303.79
4	1	278	1303.43	1303.43
4	1	279	1303.08	1303.08
4	1	280	1302.73	1302.73
4	1	281	1302.40	1302.40
4	1	282	1302.06	1302.06
4	1	283	1301.74	1301.74
4	1	284	1301.43	1301.43
4	1	285	1301.12	1301.12
4	1	286	1300.82	1300.82
4	1	287	1300.53	1300.53
4	1	288	1300.24	1300.24
4	1	289	1299.97	1299.97
4	1	290	1299.71	1299.71
4	1	291	1299.46	1299.46
4	1	292	1299.22	1299.22
4	1	293	1298.99	1298.99
4	1	294	1298.77	1298.77
4	1	295	1298.55	1298.55
4	1	296	1298.35	1298.35
4	1	297	1298.15	1298.15
4	1	298	1297.97	1297.97
4	1	299	1297.79	1297.79
4	1	300	1297.63	1297.63
4	1	301	1297.47	1297.47
4	1	302	1297.33	1297.33
4	1	303	1297.20	1297.20
4	1	304	1297.08	1297.08
4	1	305	1296.97	1296.97
4	1	306	1296.87	1296.87
4	1	307	1296.79	1296.79
4	1	308	1296.72	1296.72
4	1	309	1296.66	1296.66
4	1	310	1296.61	1296.61
4	1	311	1296.56	1296.56
4	1	312	1296.50	1296.50
4	1	313	1296.45	1296.45
4	1	314	1296.40	1296.40
4	1	315	1296.35	1296.35
4	1	316	1296.30	1296.30
4	1	317	1296.25	1296.25
4	1	318	1296.20	1296.20
4	1	319	1296.16	1296.16
4	1	320	1296.10	1296.10
4	1	321	1296.04	1296.04
4	1	322	1295.98	1295.98
4	1	323	1295.92	1295.92
4	1	324	1295.86	1295.86
4	1	325	1295.80	1295.80
4	1	326	1295.75	1295.75
4	1	327	1295.69	1295.69
4	1	328	1295.64	1295.64
4	1	329	1295.59	1295.59
4	1	330	1295.53	1295.53
4	1	331	1295.48	1295.48
4	1	332	1295.43	1295.43
4	1	333	1295.38	1295.38
4	1	334	1295.34	1295.34
4	1	335	1295.29	1295.29
4	1	336	1295.24	1295.24
4	1	337	1295.20	1295.20
4	1	338	1295.15	1295.15
4	1	339	1295.11	1295.11
4	1	340	1295.07	1295.07
4	1	341	1295.03	1295.03
4	1	342	1294.99	1294.99
4	1	343	1294.95	1294.95
4	1	344	1294.91	1294.91
4	1	345	1294.87	1294.87
4	1	346	1294.84	1294.84
4	1	347	1294.80	1294.80
4	1	348	1294.77	1294.77
4	1	349	1294.74	1294.74
4	1	350	1294.71	1294.71
4	1	351	1294.68	1294.68
4	1	352	1294.65	1294.65
4	1	353	1294.62	1294.62
4	1	354	1294.60	1294.60
4	1	355	1294.57	1294.57
4	1	356	1294.55	1294.55
4	1	357	1294.53	1294.53
4	1	358	1294.51	1294.51
4	1	359	1294.49	1294.49
4	1	360	1294.47	1294.47
4	1	361	1294.46	1294.46
4	1	362	1294.45	1294.45
4	1	363	1294.43	1294.43
4	1	364	1294.43	1294.43
4	1	365	1294.42	1294.42
4	1	366	1294.41	1294.41
4	1	367	1294.41	1294.41
4	1	368	1294.40	1294.40
4	1	369	1294.40	1294.40
4	1	370	1294.40	1294.40
4	1	371	1294.39	1294.39
4	1	372	1294.39	1294.39
4	368	73	1295.92	1295.92
4	368	74	1295.84	1295.84
4	368	75	1295.76	1295.76
4	368	76	1295.68	1295.68
4	368	77	1295.60	1295.60
4	368	78	1295.52	1295.52
4	368	79	1295.44	1295.44
4	368	80	1295.36	1295.36
4	368	81	1295.28	1295.28
4	368	82	1295.20	1295.20
4	368	83	1295.12	1295.12
4	368	84	1295.04	1295.04
4	368	85	1294.96	1294.96
4	368	86	1294.88	1294.88
4	368	87	1294.80	1294.80
4	368	88	1294.72	1294.72
4	368	89	1294.63	1294.63
4	368	90	1294.55	1294.55
4	368	91	1294.47	1294.47
4	368	92	1294.38	1294.38
4	368	93	1294.30	1294.30
4	368	94	1294.22	1294.22
4	368	95	1294.13	1294.13
4	368	96	1294.05	1294.05
4	368	97	1293.96	1293.96
4	368	98	1293.87	1293.87
4	368	99	1293.77	1293.77
4	368	100	1293.67	1293.67
4	368	101	1293.56	1293.56
4	368	102	1293.44	1293.44
4	368	103	1293.32	1293.32
4	368	104	1293.19	1293.19
4	368	105	1293.05	1293.05
4	368	106	1292.89	1292.89
4	368	107	1292.73	1292.73
4	368	149	1283.12	1283.12
4	368	150	1282.93	1282.93
4	368	151	1282.74	1282.74
4	368	152	1282.55	1282.55
4	368	153	1282.37	1282.37
4	368	154	1282.18	1282.18
4	368	155	1282.01	1282.01
4	368	156	1281.83	1281.83
4	368	157	1281.66	1281.66
4	368	158	1281.49	1281.49
4	368	159	1281.32	1281.32
4	368	160	1281.16	1281.16
4	368	161	1281.00	1281.00
4	368	162	1280.84	1280.84
4	368	163	1280.69	1280.69
4	368	164	1280.54	1280.54
4	368	165	1280.41	1280.41
4	368	166	1280.27	1280.27
4	368	167	1280.14	1280.14
4	368	168	1280.01	1280.01
4	368	169	1279.88	1279.88
4	368	170	1279.76	1279.76
4	368	171	1279.64	1279.64
4	368	172	1279.52	1279.52
4	368	173	1279.40	1279.40
4	368	174	1279.28	1279.28
4	368	175	1279.17	1279.17
4	368	176	1279.05	1279.05
4	368	177	1278.94	1278.94
4	368	178	1278.83	1278.83
4	368	179	1278.71	1278.71
4	368	180	1278.60	1278.60
4	368	181	1278.49	1278.49
4	368	182	1278.38	1278.38
4	368	183	1278.28	1278.28
4	368	184	1278.17	1278.17
4	368	185	1278.09	1278.09
4	368	186	1277.99	1277.99
4	368	187	1277.89	1277.89
4	368	188	1277.79	1277.79
4	368	189	1277.67	1277.67
4	368	190	1277.58	1277.58
4	368	191	1277.50	1277.50
4	368	192	1277.42	1277.42
4	368	193	1277.33	1277.33
4	368	194	1277.25	1277.25
4	368	195	1277.17	1277.17
4	368	196	1277.09	1277.09
4	368	197	1277.01	1277.01
4	368	198	1276.94	1276.94
4	368	199	1276.90	1276.90
4	368	200	1276.89	1276.89
4	368	201	1276.86	1276.86
4	368	202	1276.86	1276.86
4	368	203	1276.86	1276.86
4	368	204	1276.87	1276.87
4	368	205	1276.88	1276.88
4	368	206	1276.90	1276.90
4	368	207	1276.92	1276.92
4	368	208	1276.95	1276.95
4	368	209	1276.98	1276.98
4	368	210	1277.01	1277.01
4	368	211	1277.04	1277.04
4	368	212	1277.08	1277.08
4	368	213	1277.11	1277.11
4	368	214	1277.13	1277.13
4	368	215	1277.16	1277.16
4	368	216	1277.19	1277.19
4	368	217	1277.21	1277.21
4	368	218	1277.23	1277.23
4	368	219	1277.24	1277.24
4	368	220	1277.25	1277.25
4	368	221	1277.27	1277.27
4	368	222	1277.27	1277.27
4	368	223	1277.26	1277.26
4	368	224	1277.26	1277.26
4	368	225	1277.27	1277.27
4	368	226	1277.25	1277.25
4	368	227	1277.20	1277.20
4	368	228	1277.16	1277.16
4	368	229	1277.13	1277.13
4	368	230	1277.08	1277.08
4	368	231	1277.04	1277.04
4	368	232	1277.00	1277.00
4	368	233	1276.95	1276.95
4	368	234	1276.90	1276.90
4	368	235	1276.86	1276.86
4	368	236	1276.82	1276.82
4	368	237	1276.78	1276.78
4	368	238	1276.73	1276.73
4	368	239	1276.70	1276.70
4	368	240	1276.66	1276.66
4	368	241	1276.62	1276.62
4	368	242	1276.58	1276.58
4	368	243	1276.54	1276.54
4	368	244	1276.50	1276.50
4	368	245	1276.46	1276.46
4	368	246	1276.43	1276.43
4	368	247	1276.39	1276.39
4	368	248	1276.36	1276.36
4	368	249	1276.32	1276.32
4	368	250	1276.28	1276.28
4	368	251	1276.25	1276.25
4	368	252	1276.20	1276.20
4	368	253	1276.18	1276.18
4	368	254	1276.14	1276.14
4	368	255	1276.11	1276.11
4	368	256	1276.07	1276.07
4	368	257	1276.03	1276.03
4	368	258	1276.00	1276.00
4	368	259	1275.97	1275.97
4	368	260	1275.94	1275.94
4	368	261	1275.90	1275.90
4	368	262	1275.87	1275.87
4	368	263	1275.84	1275.84
4	368	264	1275.80	1275.80
4	368	265	1275.77	1275.77
4	368	266	1275.74	1275.74
4	368	267	1275.71	1275.71
4	368	268	1275.68	1275.68
4	368	269	1275.65	1275.65
4	368	270	1275.62	1275.62
4	368	271	1275.59	1275.59
4	368	272	1275.56	1275.56
4	368	273	1275.52	1275.52
4	368	274	1275.50	1275.50
4	368	275	1275.47	1275.47
4	368	276	1275.43	1275.43
4	368	277	1275.39	1275.39
4	368	278	1275.36	1275.36
4	368	279	1275.32	1275.32
4	368	280	1275.29	1275.29
4	368	281	1275.25	1275.25
4	368	282	1275.21	1275.21
4	368	283	1275.17	1275.17
4	368	284	1275.13	1275.13
4	368	285	1275.10	1275.10
4	368	286	1275.06	1275.06
4	368	287	1275.02	1275.02
4	368	288	1274.98	1274.98
4	368	289	1274.93	1274.93
4	368	290	1274.89	1274.89
4	368	291	1274.86	1274.86
4	368	292	1274.81	1274.81
4	368	293	1274.77	1274.77
4	368	294	1274.73	1274.73
4	368	295	1274.70	1274.70
4	368	296	1274.66	1274.66
4	368	297	1274.62	1274.62
4	368	298	1274.59	1274.59
4	368	299	1274.55	1274.55
4	368	300	1274.51	1274.51
4	368	301	1274.47	1274.47
4	368	302	1274.44	1274.44
4	368	303	1274.41	1274.41
4	368	304	1274.37	1274.37
4	368	305	1274.34	1274.34
4	368	306	1274.31	1274.31
4	368	307	1274.27	1274.27
4	368	308	1274.24	1274.24
4	368	309	1274.21	1274.21
4	368	310	1274.18	1274.18
4	368	311	1274.15	1274.15
4	368	312	1274.12	1274.12
4	368	313	1274.09	1274.09
4	368	314	1274.06	1274.06
4	368	315	1274.03	1274.03
4	368	316	1274.01	1274.01
4	368	317	1273.98	1273.98
4	368	318	1273.95	1273.95
4	368	319	1273.92	1273.92
4	368	320	1273.89	1273.89
4	368	321	1273.87	1273.87
4	368	322	1273.85	1273.85
4	368	323	1273.83	1273.83
4	368	324	1273.80	1273.80
4	368	325	1273.78	1273.78
4	368	326	1273.76	1273.76
4	368	327	1273.74	1273.74
4	368	328	1273.71	1273.71
4	368	329	1273.69	1273.69
4	368	330	1273.67	1273.67
4	368	331	1273.65	1273.65
4	368	332	1273.63	1273.63
4	368	333	1273.61	1273.61
4	368	334	1273.60	1273.60
4	368	335	1273.58	1273.58
4	368	336	1273.57	1273.57
4	368	337	1273.55	1273.55
4	368	338	1273.54	1273.54
4	368	339	1273.52	1273.52
4	368	340	1273.51	1273.51
4	368	341	1273.49	1273.49
4	368	342	1273.48	1273.48
4	368	343	1273.47	1273.47
4	368	344	1273.46	1273.46
4	368	345	1273.45	1273.45
4	368	346	1273.44	1273.44
4	368	347	1273.43	1273.43
4	368	348	1273.42	1273.42
6	1	220	1298.00	1298.00
6	1	221	1297.97	1297.97
6	1	222	1297.94	1297.94
6	1	223	1297.91	1297.91
6	1	224	1297.88	1297.88
6	1	225	1297.85	1297.85
6	1	226	1297.82	1297.82
6	1	227	1297.79	1297.79
6	1	228	1297.76	1297.76
6	1	229	1297.73	1297.73
6	1	230	1297.70	1297.70
6	1	231	1297.67	1297.67
6	1	232	1297.64	1297.64
6	1	233	1297.61	1297.61
6	1	234	1297.58	1297.58
6	1	235	1297.55	1297.55
6	1	236	1297.52	1297.52
6	1	237	1297.49	1297.49
6	1	238	1297.46	1297.46
6	1	239	1297.43	1297.43
6	1	240	1297.40	1297.40
6	1	241	1297.37	1297.37
6	1	242	1297.34	1297.34
6	1	243	1297.31	1297.31
6	1	244	1297.28	1297.28
6	1	245	1297.25	1297.25
6	1	246	1297.22	1297.22
6	1	247	1297.19	1297.19
6	1	248	1297.16	1297.16
6	1	249	1297.13	1297.13
6	1	250	1297.10	1297.10
6	1	251	1297.07	1297.07
6	1	252	1297.04	1297.04
6	1	253	1297.01	1297.01
6	1	254	1296.98	1296.98
6	1	255	1296.95	1296.95
6	1	256	1296.92	1296.92
6	1	257	1296.89	1296.89
6	1	258	1296.86	1296.86
6	1	259	1296.83	1296.83
6	1	260	1296.80	1296.80
6	1	261	1296.77	1296.77
6	1	262	1296.74	1296.74
6	1	263	1296.71	1296.71
6	1	264	1296.69	1296.69
6	1	265	1296.67	1296.67
6	1	266	1296.65	1296.65
6	1	267	1296.63	1296.63
6	1	268	1296.61	1296.61
6	1	269	1296.59	1296.59
6	1	270	1296.57	1296.57
6	1	271	1296.55	1296.55
6	1	272	1296.53	1296.53
6	1	273	1296.51	1296.51
6	1	274	1296.49	1296.49
6	1	275	1296.47	1296.47
6	1	276	1296.45	1296.45
6	1	277	1296.43	1296.43
6	1	278	1296.41	1296.41
6	1	279	1296.39	1296.39
6	1	280	1296.37	1296.37
6	1	281	1296.35	1296.35
6	1	282	1296.33	1296.33
6	1	283	1296.31	1296.31
6	1	284	1296.29	1296.29
6	1	285	1296.27	1296.27
6	1	286	1296.25	1296.25
6	1	287	1296.23	1296.23
6	1	288	1296.21	1296.21
6	1	289	1296.19	1296.19
6	1	290	1296.17	1296.17
6	1	291	1296.15	1296.15
6	1	292	1296.13	1296.13
6	1	293	1296.11	1296.11
6	1	294	1296.09	1296.09
6	1	295	1296.07	1296.07
6	1	296	1296.05	1296.05
6	1	297	1296.03	1296.03
6	1	298	1296.01	1296.01
6	1	299	1295.99	1295.99
6	1	300	1295.97	1295.97
6	1	301	1295.95	1295.95
6	1	302	1295.93	1295.93
6	1	303	1295.91	1295.91
6	1	304	1295.89	1295.89
6	1	305	1295.87	1295.87
6	1	306	1295.85	1295.85
6	1	307	1295.83	1295.83
6	39	410	1270.80	1270.80
6	40	410	1271.00	1271.00
6	41	410	1271.20	1271.20
6	42	410	1271.40	1271.40
6	43	410	1271.60	1271.60
6	44	410	1271.80	1271.80
6	45	410	1272.00	1272.00
6	46	410	1272.20	1272.20
6	47	410	1272.40	1272.40
6	48	410	1272.60	1272.60
6	49	410	1272.80	1272.80
6	50	410	1273.00	1273.00
6	51	410	1273.20	1273.20
6	52	410	1273.40	1273.40
6	53	410	1273.60	1273.60
6	54	410	1273.80	1273.80
6	55	410	1274.00	1274.00
6	56	410	1274.20	1274.20
6	57	410	1274.40	1274.40
6	58	410	1274.60	1274.60
6	59	410	1274.80	1274.80
6	60	410	1275.00	1275.00
6	61	410	1275.20	1275.20
6	62	410	1275.40	1275.40
6	63	410	1275.60	1275.60
6	64	410	1275.80	1275.80
6	65	410	1276.00	1276.00
6	66	410	1276.20	1276.20
6	67	410	1276.40	1276.40
6	68	410	1276.60	1276.60
6	69	410	1276.80	1276.80
6	70	410	1277.00	1277.00
6	71	410	1277.20	1277.20
6	72	410	1277.40	1277.40
6	73	410	1277.60	1277.60
6	74	410	1277.80	1277.80
6	75	410	1278.00	1278.00
6	76	410	1278.20	1278.20
6	77	410	1278.40	1278.40
6	78	410	1278.60	1278.60
6	79	410	1278.80	1278.80
6	80	410	1279.00	1279.00
6	368	93	1305.94	1305.94
6	368	94	1305.89	1305.89
6	368	95	1305.84	1305.84
6	368	96	1305.79	1305.79
6	368	97	1305.74	1305.74
6	368	98	1305.69	1305.69
6	368	99	1305.49	1305.49
6	368	193	1300.00	1300.00
6	368	194	1299.96	1299.96
6	368	195	1299.92	1299.92
6	368	196	1299.88	1299.88
6	368	197	1299.84	1299.84
6	368	198	1299.80	1299.80
6	368	199	1299.76	1299.76
6	368	200	1299.72	1299.72
6	368	201	1299.68	1299.68
6	368	202	1299.64	1299.64
6	368	203	1299.60	1299.60
6	368	204	1299.56	1299.56
6	368	205	1299.52	1299.52
6	368	206	1299.48	1299.48
6	368	207	1299.44	1299.44
6	368	208	1299.40	1299.40
6	368	209	1299.36	1299.36
6	368	210	1299.32	1299.32
6	368	211	1299.28	1299.28
6	368	212	1299.24	1299.24
6	368	213	1299.20	1299.20
6	368	214	1299.16	1299.16
6	368	215	1299.12	1299.12
6	368	216	1299.08	1299.08
6	368	217	1299.04	1299.04
6	368	218	1299.00	1299.00
6	368	219	1298.96	1298.96
6	368	220	1298.92	1298.92
6	368	221	1298.88	1298.88
6	368	222	1298.84	1298.84
6	368	223	1298.80	1298.80
6	368	224	1298.76	1298.76
6	368	225	1298.72	1298.72
6	368	226	1298.68	1298.68
6	368	227	1298.64	1298.64
6	368	228	1298.60	1298.60
6	368	229	1298.56	1298.56
6	368	230	1298.52	1298.52
6	368	231	1298.48	1298.48
6	368	232	1298.44	1298.44