"DEPENDENT NAME", "VALUE"
Q1c                 ,     1295.383178710938    
Q2c                 ,     1311.019287109375    
Q3c                 ,     1300.681152343750    
Q4c                 ,     1300.098754882812    
Q5c                 ,     1301.046386718750    
Q6c                 ,     1307.922241210938    
MODFLOW_STAT        ,     0.000000000000000    
DEWATER_STAT        ,     0.000000000000000    
