"DEPENDENT NAME", "VALUE"
Q1c                 ,     1302.994750976562    
Q2c                 ,     1300.437255859375    
Q3c                 ,     1300.284057617188    
Q4c                 ,     1315.305786132812    
Q5c                 ,     1317.086791992188    
Q6c                 ,     1315.755615234375    
MODFLOW_STAT        ,     0.000000000000000    
DEWATER_STAT        ,     0.000000000000000    
