"DEPENDENT NAME", "VALUE"
Q1c                 ,     1302.996459960938    
Q2c                 ,     1314.736450195312    
Q3c                 ,     1300.378051757812    
Q4c                 ,     1315.290039062500    
Q5c                 ,     1317.061157226562    
Q6c                 ,     1315.708618164062    
MODFLOW_STAT        ,     0.000000000000000    
DEWATER_STAT        ,     0.000000000000000    
