"DEPENDENT NAME", "VALUE"
Q1c                 ,     1300.997924804688    
Q2c                 ,     1304.115356445312    
Q3c                 ,     1321.160766601562    
Q4c                 ,     1308.074218750000    
Q5c                 ,     1308.159057617188    
Q6c                 ,     1317.719238281250    
MODFLOW_STAT        ,     0.000000000000000    
DEWATER_STAT        ,     0.000000000000000    
