"DEPENDENT NAME", "VALUE"
Q1c                 ,     1332.303588867188    
Q2c                 ,     1314.740112304688    
Q3c                 ,     1300.379516601562    
Q4c                 ,     1315.251586914062    
Q5c                 ,     1317.072021484375    
Q6c                 ,     1315.741210937500    
MODFLOW_STAT        ,     0.000000000000000    
DEWATER_STAT        ,     0.000000000000000    
