"DEPENDENT NAME", "VALUE"
Q1c                 ,     1301.020996093750    
Q2c                 ,     1303.883789062500    
Q3c                 ,     1321.158813476562    
Q4c                 ,     1308.529541015625    
Q5c                 ,     1308.154907226562    
Q6c                 ,     1317.711914062500    
MODFLOW_STAT        ,     0.000000000000000    
DEWATER_STAT        ,     0.000000000000000    
