"DEPENDENT NAME", "VALUE"
Q1c                 ,     1302.997192382812    
Q2c                 ,     1300.436279296875    
Q3c                 ,     1300.378417968750    
Q4c                 ,     1315.290039062500    
Q5c                 ,     1317.036743164062    
Q6c                 ,     1315.730224609375    
MODFLOW_STAT        ,     0.000000000000000    
DEWATER_STAT        ,     0.000000000000000    
