xul 1743237.983372          # upper left x-coordinate
yul 16595275.355405         # upper left y-coordinate
rotation 0                  # model grid rotation (degrees)
length_units feet           # model length units
time_units days             # model time units
start_date 10/1/1970        # state date of the model
start_time 00:00:00         # start time of the model
model modflow-nwt           # MODFLOW model type
'+proj=utm +zone=14 +ellps=GRS80 +datum=NAD83 +units=ft +no_defs '        #proj4 string