# MODFLOW2000 Well Package
# PARAMETER  0  0
# OPTIONS
# SPECIFY 0.2 501
# END
	46	50		AUX IFACE
	35	0		
	2	169	180	-48384
	2	163	181	0
	2	137	160	-18541.44
	2	296	230	-1263.168
	2	297	230	-1263.168
	2	299	231	-1263.168
	2	300	232	-1263.168
	2	301	235	-1263.168
	2	301	236	-1263.168
	2	301	237	-1263.168
	2	302	235	-1263.168
	2	303	228	-1263.168
	2	303	230	-1263.168
	2	303	231	-1263.168
	2	303	232	-1263.168
	2	304	230	-1263.168
	2	304	231	-1263.168
	2	305	228	-1263.168
	2	292	234	-1263.168
	2	293	234	-1263.168
	2	293	235	-1263.168
	2	294	234	-1263.168
	2	296	234	-1263.168
	2	297	234	-1263.168
	2	301	233	-1263.168
	2	302	230	-1263.168
	2	302	231	-1263.168
	2	302	232	-1263.168
	2	304	228	-1263.168
	2	314	82	-2315.52
	2	314	84	-2315.52
	2	315	82	-2315.52
	2	315	83	-2315.52
	2	163	90	0
	2	10	128	-1883.52
	34	0		
	2	169	180	-60480
	2	163	181	0
	2	137	160	-19483.2
	2	296	230	0
	2	297	230	0
	2	299	231	0
	2	300	232	0
	2	301	235	0
	2	301	236	0
	2	301	237	0
	2	302	235	0
	2	303	228	0
	2	303	230	0
	2	303	231	0
	2	303	232	0
	2	304	230	0
	2	304	231	0
	2	305	228	0
	2	292	234	0
	2	293	234	0
	2	293	235	0
	2	294	234	0
	2	296	234	0
	2	297	234	0
	2	301	233	0
	2	302	230	0
	2	302	231	0
	2	302	232	0
	2	304	228	0
	2	314	82	-2315.52
	2	314	84	-2315.52
	2	315	82	-2315.52
	2	315	83	-2315.52
	2	10	128	0
	46	0		
	2	169	180	-60480
	2	163	181	0
	2	137	160	-51019.2
	2	296	230	0
	2	297	230	0
	2	299	231	0
	2	300	232	0
	2	301	235	0
	2	301	236	0
	2	301	237	0
	2	302	235	0
	2	303	228	0
	2	303	230	0
	2	303	231	0
	2	303	232	0
	2	304	230	0
	2	304	231	0
	2	305	228	0
	2	292	234	0
	2	293	234	0
	2	293	235	0
	2	294	234	0
	2	296	234	0
	2	297	234	0
	2	301	233	0
	2	302	230	0
	2	302	231	0
	2	302	232	0
	2	304	228	0
	2	314	82	-2315.52
	2	314	84	-2315.52
	2	315	82	-2315.52
	2	315	83	-2315.52
	2	10	128	-1883.52
	2	161	87	-2592
	2	161	88	-2592
	2	162	88	-2592
	2	163	86	-2592
	2	163	89	-2592
	2	164	88	-2592
	2	164	90	-2592
	2	165	91	-2592
	2	165	89	-2592
	2	166	88	-2592
	2	166	89	-2592
	2	167	90	-2592
	46	0		
	2	169	180	-60480
	2	163	181	0
	2	137	160	-16580.16
	2	296	230	0
	2	297	230	0
	2	299	231	0
	2	300	232	0
	2	301	235	0
	2	301	236	0
	2	301	237	0
	2	302	235	0
	2	303	228	0
	2	303	230	0
	2	303	231	0
	2	303	232	0
	2	304	230	0
	2	304	231	0
	2	305	228	0
	2	292	234	0
	2	293	234	0
	2	293	235	0
	2	294	234	0
	2	296	234	0
	2	297	234	0
	2	301	233	0
	2	302	230	0
	2	302	231	0
	2	302	232	0
	2	304	228	0
	2	314	82	-2315.52
	2	314	84	-2315.52
	2	315	82	-2315.52
	2	315	83	-2315.52
	2	10	128	-1883.52
	2	161	87	-2592
	2	161	88	-2592
	2	162	88	-2592
	2	163	86	-2592
	2	163	89	-2592
	2	164	88	-2592
	2	164	90	-2592
	2	165	91	-2592
	2	165	89	-2592
	2	166	88	-2592
	2	166	89	-2592
	2	167	90	-2592
	46	0		
	2	169	180	-60480
	2	163	181	0
	2	137	160	-12934.08
	2	296	230	0
	2	297	230	0
	2	299	231	0
	2	300	232	0
	2	301	235	0
	2	301	236	0
	2	301	237	0
	2	302	235	0
	2	303	228	0
	2	303	230	0
	2	303	231	0
	2	303	232	0
	2	304	230	0
	2	304	231	0
	2	305	228	0
	2	292	234	0
	2	293	234	0
	2	293	235	0
	2	294	234	0
	2	296	234	0
	2	297	234	0
	2	301	233	0
	2	302	230	0
	2	302	231	0
	2	302	232	0
	2	304	228	0
	2	314	82	-2315.52
	2	314	84	-2315.52
	2	315	82	-2315.52
	2	315	83	-2315.52
	2	10	128	-1883.52
	2	161	87	-2592
	2	161	88	-2592
	2	162	88	-2592
	2	163	86	-2592
	2	163	89	-2592
	2	164	88	-2592
	2	164	90	-2592
	2	165	91	-2592
	2	165	89	-2592
	2	166	88	-2592
	2	166	89	-2592
	2	167	90	-2592
	46	0		
	2	169	180	-60480
	2	163	181	0
	2	137	160	-19440
	2	296	230	0
	2	297	230	0
	2	299	231	0
	2	300	232	0
	2	301	235	0
	2	301	236	0
	2	301	237	0
	2	302	235	0
	2	303	228	0
	2	303	230	0
	2	303	231	0
	2	303	232	0
	2	304	230	0
	2	304	231	0
	2	305	228	0
	2	292	234	0
	2	293	234	0
	2	293	235	0
	2	294	234	0
	2	296	234	0
	2	297	234	0
	2	301	233	0
	2	302	230	0
	2	302	231	0
	2	302	232	0
	2	304	228	0
	2	314	82	-2315.52
	2	314	84	-2315.52
	2	315	82	-2315.52
	2	315	83	-2315.52
	2	10	128	-1883.52
	2	161	87	-2592
	2	161	88	-2592
	2	162	88	-2592
	2	163	86	-2592
	2	163	89	-2592
	2	164	88	-2592
	2	164	90	-2592
	2	165	91	-2592
	2	165	89	-2592
	2	166	88	-2592
	2	166	89	-2592
	2	167	90	-2592
	34	0		
	2	169	180	-60480
	2	163	181	0
	2	137	160	0
	2	296	230	0
	2	297	230	0
	2	299	231	0
	2	300	232	0
	2	301	235	0
	2	301	236	0
	2	301	237	0
	2	302	235	0
	2	303	228	0
	2	303	230	0
	2	303	231	0
	2	303	232	0
	2	304	230	0
	2	304	231	0
	2	305	228	0
	2	292	234	0
	2	293	234	0
	2	293	235	0
	2	294	234	0
	2	296	234	0
	2	297	234	0
	2	301	233	0
	2	302	230	0
	2	302	231	0
	2	302	232	0
	2	304	228	0
	2	314	82	-2315.52
	2	314	84	-2315.52
	2	315	82	-2315.52
	2	315	83	-2315.52
	2	10	128	0
	34	0		
	2	169	180	-60480
	2	163	181	0
	2	137	160	0
	2	296	230	0
	2	297	230	0
	2	299	231	0
	2	300	232	0
	2	301	235	0
	2	301	236	0
	2	301	237	0
	2	302	235	0
	2	303	228	0
	2	303	230	0
	2	303	231	0
	2	303	232	0
	2	304	230	0
	2	304	231	0
	2	305	228	0
	2	292	234	0
	2	293	234	0
	2	293	235	0
	2	294	234	0
	2	296	234	0
	2	297	234	0
	2	301	233	0
	2	302	230	0
	2	302	231	0
	2	302	232	0
	2	304	228	0
	2	314	82	-2315.52
	2	314	84	-2315.52
	2	315	82	-2315.52
	2	315	83	-2315.52
	2	10	128	0
	46	0		
	2	169	180	-60480
	2	163	181	0
	2	137	160	0
	2	296	230	0
	2	297	230	0
	2	299	231	0
	2	300	232	0
	2	301	235	0
	2	301	236	0
	2	301	237	0
	2	302	235	0
	2	303	228	0
	2	303	230	0
	2	303	231	0
	2	303	232	0
	2	304	230	0
	2	304	231	0
	2	305	228	0
	2	292	234	0
	2	293	234	0
	2	293	235	0
	2	294	234	0
	2	296	234	0
	2	297	234	0
	2	301	233	0
	2	302	230	0
	2	302	231	0
	2	302	232	0
	2	304	228	0
	2	314	82	-2315.52
	2	314	84	-2315.52
	2	315	82	-2315.52
	2	315	83	-2315.52
	2	10	128	-2592
	2	161	87	-4320
	2	161	88	-4320
	2	162	88	-4320
	2	163	86	-4320
	2	163	89	-4320
	2	164	88	-4320
	2	164	90	-4320
	2	165	91	-4320
	2	165	89	-4320
	2	166	88	-4320
	2	166	89	-4320
	2	167	90	-4320
	46	0		
	2	169	180	-60480
	2	163	181	0
	2	137	160	-82944
	2	296	230	0
	2	297	230	0
	2	299	231	0
	2	300	232	0
	2	301	235	0
	2	301	236	0
	2	301	237	0
	2	302	235	0
	2	303	228	0
	2	303	230	0
	2	303	231	0
	2	303	232	0
	2	304	230	0
	2	304	231	0
	2	305	228	0
	2	292	234	0
	2	293	234	0
	2	293	235	0
	2	294	234	0
	2	296	234	0
	2	297	234	0
	2	301	233	0
	2	302	230	0
	2	302	231	0
	2	302	232	0
	2	304	228	0
	2	314	82	-2315.52
	2	314	84	-2315.52
	2	315	82	-2315.52
	2	315	83	-2315.52
	2	10	128	-5607.36
	2	161	87	-6048
	2	161	88	-6048
	2	162	88	-6048
	2	163	86	-6048
	2	163	89	-6048
	2	164	88	-6048
	2	164	90	-6048
	2	165	91	-6048
	2	165	89	-6048
	2	166	88	-6048
	2	166	89	-6048
	2	167	90	-6048
	34	0		
	2	169	180	-55296
	2	163	181	-6912
	2	137	160	0
	2	296	230	0
	2	297	230	0
	2	299	231	0
	2	300	232	0
	2	301	235	0
	2	301	236	0
	2	301	237	0
	2	302	235	0
	2	303	228	0
	2	303	230	0
	2	303	231	0
	2	303	232	0
	2	304	230	0
	2	304	231	0
	2	305	228	0
	2	292	234	0
	2	293	234	0
	2	293	235	0
	2	294	234	0
	2	296	234	0
	2	297	234	0
	2	301	233	0
	2	302	230	0
	2	302	231	0
	2	302	232	0
	2	304	228	0
	2	314	82	-2315.52
	2	314	84	-2315.52
	2	315	82	-2315.52
	2	315	83	-2315.52
	2	10	128	0
	34	0		
	2	169	180	-48384
	2	163	181	-16416
	2	137	160	0
	2	296	230	-133.056
	2	297	230	-133.056
	2	299	231	-133.056
	2	300	232	-133.056
	2	301	235	-133.056
	2	301	236	-133.056
	2	301	237	-133.056
	2	302	235	-133.056
	2	303	228	-133.056
	2	303	230	-133.056
	2	303	231	-133.056
	2	303	232	-133.056
	2	304	230	-133.056
	2	304	231	-133.056
	2	305	228	-133.056
	2	292	234	-133.056
	2	293	234	-133.056
	2	293	235	-133.056
	2	294	234	-133.056
	2	296	234	-133.056
	2	297	234	-133.056
	2	301	233	-133.056
	2	302	230	-133.056
	2	302	231	-133.056
	2	302	232	-133.056
	2	304	228	-133.056
	2	314	82	-2315.52
	2	314	84	-2315.52
	2	315	82	-2315.52
	2	315	83	-2315.52
	2	10	128	0
	46	0		
	2	169	180	-48384
	2	163	181	-16416
	2	137	160	0
	2	296	230	-1130.112
	2	297	230	-1130.112
	2	299	231	-1130.112
	2	300	232	-1130.112
	2	301	235	-1130.112
	2	301	236	-1130.112
	2	301	237	-1130.112
	2	302	235	-1130.112
	2	303	228	-1130.112
	2	303	230	-1130.112
	2	303	231	-1130.112
	2	303	232	-1130.112
	2	304	230	-1130.112
	2	304	231	-1130.112
	2	305	228	-1130.112
	2	292	234	-1130.112
	2	293	234	-1130.112
	2	293	235	-1130.112
	2	294	234	-1130.112
	2	296	234	-1130.112
	2	297	234	-1130.112
	2	301	233	-1130.112
	2	302	230	-1130.112
	2	302	231	-1130.112
	2	302	232	-1130.112
	2	304	228	-1130.112
	2	314	82	-2315.52
	2	314	84	-2315.52
	2	315	82	-2315.52
	2	315	83	-2315.52
	2	10	128	0
	2	161	87	-4320
	2	161	88	-4320
	2	162	88	-4320
	2	163	86	-4320
	2	163	89	-4320
	2	164	88	-4320
	2	164	90	-4320
	2	165	91	-4320
	2	165	89	-4320
	2	166	88	-4320
	2	166	89	-4320
	2	167	90	-4320
	46	0		
	2	169	180	-48384
	2	163	181	-16416
	2	137	160	-89856
	2	296	230	-1594.944
	2	297	230	-1594.944
	2	299	231	-1594.944
	2	300	232	-1594.944
	2	301	235	-1594.944
	2	301	236	-1594.944
	2	301	237	-1594.944
	2	302	235	-1594.944
	2	303	228	-1594.944
	2	303	230	-1594.944
	2	303	231	-1594.944
	2	303	232	-1594.944
	2	304	230	-1594.944
	2	304	231	-1594.944
	2	305	228	-1594.944
	2	292	234	-1594.944
	2	293	234	-1594.944
	2	293	235	-1594.944
	2	294	234	-1594.944
	2	296	234	-1594.944
	2	297	234	-1594.944
	2	301	233	-1594.944
	2	302	230	-1594.944
	2	302	231	-1594.944
	2	302	232	-1594.944
	2	304	228	-1594.944
	2	314	82	-2315.52
	2	314	84	-2315.52
	2	315	82	-2315.52
	2	315	83	-2315.52
	2	10	128	-8424
	2	161	87	-6048
	2	161	88	-6048
	2	162	88	-6048
	2	163	86	-6048
	2	163	89	-6048
	2	164	88	-6048
	2	164	90	-6048
	2	165	91	-6048
	2	165	89	-6048
	2	166	88	-6048
	2	166	89	-6048
	2	167	90	-6048
	34	0		
	2	169	180	-48384
	2	163	181	-16416
	2	137	160	0
	2	296	230	0
	2	297	230	0
	2	299	231	0
	2	300	232	0
	2	301	235	0
	2	301	236	0
	2	301	237	0
	2	302	235	0
	2	303	228	0
	2	303	230	0
	2	303	231	0
	2	303	232	0
	2	304	230	0
	2	304	231	0
	2	305	228	0
	2	292	234	0
	2	293	234	0
	2	293	235	0
	2	294	234	0
	2	296	234	0
	2	297	234	0
	2	301	233	0
	2	302	230	0
	2	302	231	0
	2	302	232	0
	2	304	228	0
	2	314	82	-2315.52
	2	314	84	-2315.52
	2	315	82	-2315.52
	2	315	83	-2315.52
	2	10	128	0
	34	0		
	2	169	180	-48384
	2	163	181	-16416
	2	137	160	0
	2	296	230	-332.64
	2	297	230	-332.64
	2	299	231	-332.64
	2	300	232	-332.64
	2	301	235	-332.64
	2	301	236	-332.64
	2	301	237	-332.64
	2	302	235	-332.64
	2	303	228	-332.64
	2	303	230	-332.64
	2	303	231	-332.64
	2	303	232	-332.64
	2	304	230	-332.64
	2	304	231	-332.64
	2	305	228	-332.64
	2	292	234	-332.64
	2	293	234	-332.64
	2	293	235	-332.64
	2	294	234	-332.64
	2	296	234	-332.64
	2	297	234	-332.64
	2	301	233	-332.64
	2	302	230	-332.64
	2	302	231	-332.64
	2	302	232	-332.64
	2	304	228	-332.64
	2	314	82	-2315.52
	2	314	84	-2315.52
	2	315	82	-2315.52
	2	315	83	-2315.52
	2	10	128	0
	46	0		
	2	169	180	-48384
	2	163	181	-16416
	2	137	160	0
	2	296	230	-2127.168
	2	297	230	-2127.168
	2	299	231	-2127.168
	2	300	232	-2127.168
	2	301	235	-2127.168
	2	301	236	-2127.168
	2	301	237	-2127.168
	2	302	235	-2127.168
	2	303	228	-2127.168
	2	303	230	-2127.168
	2	303	231	-2127.168
	2	303	232	-2127.168
	2	304	230	-2127.168
	2	304	231	-2127.168
	2	305	228	-2127.168
	2	292	234	-2127.168
	2	293	234	-2127.168
	2	293	235	-2127.168
	2	294	234	-2127.168
	2	296	234	-2127.168
	2	297	234	-2127.168
	2	301	233	-2127.168
	2	302	230	-2127.168
	2	302	231	-2127.168
	2	302	232	-2127.168
	2	304	228	-2127.168
	2	314	82	-2315.52
	2	314	84	-2315.52
	2	315	82	-2315.52
	2	315	83	-2315.52
	2	10	128	-2972.16
	2	161	87	-3456
	2	161	88	-3456
	2	162	88	-3456
	2	163	86	-3456
	2	163	89	-3456
	2	164	88	-3456
	2	164	90	-3456
	2	165	91	-3456
	2	165	89	-3456
	2	166	88	-3456
	2	166	89	-3456
	2	167	90	-3456
	46	0		
	2	169	180	-48384
	2	163	181	-16416
	2	137	160	-124416
	2	296	230	-2924.64
	2	297	230	-2924.64
	2	299	231	-2924.64
	2	300	232	-2924.64
	2	301	235	-2924.64
	2	301	236	-2924.64
	2	301	237	-2924.64
	2	302	235	-2924.64
	2	303	228	-2924.64
	2	303	230	-2924.64
	2	303	231	-2924.64
	2	303	232	-2924.64
	2	304	230	-2924.64
	2	304	231	-2924.64
	2	305	228	-2924.64
	2	292	234	-2924.64
	2	293	234	-2924.64
	2	293	235	-2924.64
	2	294	234	-2924.64
	2	296	234	-2924.64
	2	297	234	-2924.64
	2	301	233	-2924.64
	2	302	230	-2924.64
	2	302	231	-2924.64
	2	302	232	-2924.64
	2	304	228	-2924.64
	2	314	82	-2315.52
	2	314	84	-2315.52
	2	315	82	-2315.52
	2	315	83	-2315.52
	2	10	128	-12035.52
	2	161	87	-6048
	2	161	88	-6048
	2	162	88	-6048
	2	163	86	-6048
	2	163	89	-6048
	2	164	88	-6048
	2	164	90	-6048
	2	165	91	-6048
	2	165	89	-6048
	2	166	88	-6048
	2	166	89	-6048
	2	167	90	-6048
	46	0		
	2	169	180	-48384
	2	163	181	-16416
	2	137	160	-31104
	2	296	230	-930.528
	2	297	230	-930.528
	2	299	231	-930.528
	2	300	232	-930.528
	2	301	235	-930.528
	2	301	236	-930.528
	2	301	237	-930.528
	2	302	235	-930.528
	2	303	228	-930.528
	2	303	230	-930.528
	2	303	231	-930.528
	2	303	232	-930.528
	2	304	230	-930.528
	2	304	231	-930.528
	2	305	228	-930.528
	2	292	234	-930.528
	2	293	234	-930.528
	2	293	235	-930.528
	2	294	234	-930.528
	2	296	234	-930.528
	2	297	234	-930.528
	2	301	233	-930.528
	2	302	230	-930.528
	2	302	231	-930.528
	2	302	232	-930.528
	2	304	228	-930.528
	2	314	82	-2315.52
	2	314	84	-2315.52
	2	315	82	-2315.52
	2	315	83	-2315.52
	2	10	128	-760.32
	2	161	87	-2592
	2	161	88	-2592
	2	162	88	-2592
	2	163	86	-2592
	2	163	89	-2592
	2	164	88	-2592
	2	164	90	-2592
	2	165	91	-2592
	2	165	89	-2592
	2	166	88	-2592
	2	166	89	-2592
	2	167	90	-2592
	46	0		
	2	169	180	-48384
	2	163	181	-16416
	2	137	160	-18144
	2	296	230	-1263.168
	2	297	230	-1263.168
	2	299	231	-1263.168
	2	300	232	-1263.168
	2	301	235	-1263.168
	2	301	236	-1263.168
	2	301	237	-1263.168
	2	302	235	-1263.168
	2	303	228	-1263.168
	2	303	230	-1263.168
	2	303	231	-1263.168
	2	303	232	-1263.168
	2	304	230	-1263.168
	2	304	231	-1263.168
	2	305	228	-1263.168
	2	292	234	-1263.168
	2	293	234	-1263.168
	2	293	235	-1263.168
	2	294	234	-1263.168
	2	296	234	-1263.168
	2	297	234	-1263.168
	2	301	233	-1263.168
	2	302	230	-1263.168
	2	302	231	-1263.168
	2	302	232	-1263.168
	2	304	228	-1263.168
	2	314	82	-2315.52
	2	314	84	-2315.52
	2	315	82	-2315.52
	2	315	83	-2315.52
	2	10	128	-1468.8
	2	161	87	-2592
	2	161	88	-2592
	2	162	88	-2592
	2	163	86	-2592
	2	163	89	-2592
	2	164	88	-2592
	2	164	90	-2592
	2	165	91	-2592
	2	165	89	-2592
	2	166	88	-2592
	2	166	89	-2592
	2	167	90	-2592
	46	0		
	2	169	180	-48384
	2	163	181	-16416
	2	137	160	-19872
	2	296	230	-1162.944
	2	297	230	-1162.944
	2	299	231	-1162.944
	2	300	232	-1162.944
	2	301	235	-1162.944
	2	301	236	-1162.944
	2	301	237	-1162.944
	2	302	235	-1162.944
	2	303	228	-1162.944
	2	303	230	-1162.944
	2	303	231	-1162.944
	2	303	232	-1162.944
	2	304	230	-1162.944
	2	304	231	-1162.944
	2	305	228	-1162.944
	2	292	234	-1162.944
	2	293	234	-1162.944
	2	293	235	-1162.944
	2	294	234	-1162.944
	2	296	234	-1162.944
	2	297	234	-1162.944
	2	301	233	-1162.944
	2	302	230	-1162.944
	2	302	231	-1162.944
	2	302	232	-1162.944
	2	304	228	-1162.944
	2	314	82	-2315.52
	2	314	84	-2315.52
	2	315	82	-2315.52
	2	315	83	-2315.52
	2	10	128	-1831.68
	2	161	87	-2592
	2	161	88	-2592
	2	162	88	-2592
	2	163	86	-2592
	2	163	89	-2592
	2	164	88	-2592
	2	164	90	-2592
	2	165	91	-2592
	2	165	89	-2592
	2	166	88	-2592
	2	166	89	-2592
	2	167	90	-2592
	46	0		
	2	169	180	-48384
	2	163	181	-16416
	2	137	160	-11232
	2	296	230	-664.416
	2	297	230	-664.416
	2	299	231	-664.416
	2	300	232	-664.416
	2	301	235	-664.416
	2	301	236	-664.416
	2	301	237	-664.416
	2	302	235	-664.416
	2	303	228	-664.416
	2	303	230	-664.416
	2	303	231	-664.416
	2	303	232	-664.416
	2	304	230	-664.416
	2	304	231	-664.416
	2	305	228	-664.416
	2	292	234	-664.416
	2	293	234	-664.416
	2	293	235	-664.416
	2	294	234	-664.416
	2	296	234	-664.416
	2	297	234	-664.416
	2	301	233	-664.416
	2	302	230	-664.416
	2	302	231	-664.416
	2	302	232	-664.416
	2	304	228	-664.416
	2	314	82	-2315.52
	2	314	84	-2315.52
	2	315	82	-2315.52
	2	315	83	-2315.52
	2	10	128	-1468.8
	2	161	87	-2592
	2	161	88	-2592
	2	162	88	-2592
	2	163	86	-2592
	2	163	89	-2592
	2	164	88	-2592
	2	164	90	-2592
	2	165	91	-2592
	2	165	89	-2592
	2	166	88	-2592
	2	166	89	-2592
	2	167	90	-2592
	46	0		
	2	169	180	-48384
	2	163	181	-16416
	2	137	160	-11232
	2	296	230	-997.056
	2	297	230	-997.056
	2	299	231	-997.056
	2	300	232	-997.056
	2	301	235	-997.056
	2	301	236	-997.056
	2	301	237	-997.056
	2	302	235	-997.056
	2	303	228	-997.056
	2	303	230	-997.056
	2	303	231	-997.056
	2	303	232	-997.056
	2	304	230	-997.056
	2	304	231	-997.056
	2	305	228	-997.056
	2	292	234	-997.056
	2	293	234	-997.056
	2	293	235	-997.056
	2	294	234	-997.056
	2	296	234	-997.056
	2	297	234	-997.056
	2	301	233	-997.056
	2	302	230	-997.056
	2	302	231	-997.056
	2	302	232	-997.056
	2	304	228	-997.056
	2	314	82	-2315.52
	2	314	84	-2315.52
	2	315	82	-2315.52
	2	315	83	-2315.52
	2	10	128	-1831.68
	2	161	87	-2592
	2	161	88	-2592
	2	162	88	-2592
	2	163	86	-2592
	2	163	89	-2592
	2	164	88	-2592
	2	164	90	-2592
	2	165	91	-2592
	2	165	89	-2592
	2	166	88	-2592
	2	166	89	-2592
	2	167	90	-2592
	46	0		
	2	169	180	-48384
	2	163	181	-16416
	2	137	160	-17280
	2	296	230	-1063.584
	2	297	230	-1063.584
	2	299	231	-1063.584
	2	300	232	-1063.584
	2	301	235	-1063.584
	2	301	236	-1063.584
	2	301	237	-1063.584
	2	302	235	-1063.584
	2	303	228	-1063.584
	2	303	230	-1063.584
	2	303	231	-1063.584
	2	303	232	-1063.584
	2	304	230	-1063.584
	2	304	231	-1063.584
	2	305	228	-1063.584
	2	292	234	-1063.584
	2	293	234	-1063.584
	2	293	235	-1063.584
	2	294	234	-1063.584
	2	296	234	-1063.584
	2	297	234	-1063.584
	2	301	233	-1063.584
	2	302	230	-1063.584
	2	302	231	-1063.584
	2	302	232	-1063.584
	2	304	228	-1063.584
	2	314	82	-2315.52
	2	314	84	-2315.52
	2	315	82	-2315.52
	2	315	83	-2315.52
	2	10	128	-2747.52
	2	161	87	-2592
	2	161	88	-2592
	2	162	88	-2592
	2	163	86	-2592
	2	163	89	-2592
	2	164	88	-2592
	2	164	90	-2592
	2	165	91	-2592
	2	165	89	-2592
	2	166	88	-2592
	2	166	89	-2592
	2	167	90	-2592
	46	0		
	2	169	180	-48384
	2	163	181	-16416
	2	137	160	-18144
	2	296	230	-1927.584
	2	297	230	-1927.584
	2	299	231	-1927.584
	2	300	232	-1927.584
	2	301	235	-1927.584
	2	301	236	-1927.584
	2	301	237	-1927.584
	2	302	235	-1927.584
	2	303	228	-1927.584
	2	303	230	-1927.584
	2	303	231	-1927.584
	2	303	232	-1927.584
	2	304	230	-1927.584
	2	304	231	-1927.584
	2	305	228	-1927.584
	2	292	234	-1927.584
	2	293	234	-1927.584
	2	293	235	-1927.584
	2	294	234	-1927.584
	2	296	234	-1927.584
	2	297	234	-1927.584
	2	301	233	-1927.584
	2	302	230	-1927.584
	2	302	231	-1927.584
	2	302	232	-1927.584
	2	304	228	-1927.584
	2	314	82	-2315.52
	2	314	84	-2315.52
	2	315	82	-2315.52
	2	315	83	-2315.52
	2	10	128	-2747.52
	2	161	87	-2592
	2	161	88	-2592
	2	162	88	-2592
	2	163	86	-2592
	2	163	89	-2592
	2	164	88	-2592
	2	164	90	-2592
	2	165	91	-2592
	2	165	89	-2592
	2	166	88	-2592
	2	166	89	-2592
	2	167	90	-2592
	34	0		
	2	169	180	-48384
	2	163	181	-16416
	2	137	160	-12960
	2	296	230	-1760.832
	2	297	230	-1760.832
	2	299	231	-1760.832
	2	300	232	-1760.832
	2	301	235	-1760.832
	2	301	236	-1760.832
	2	301	237	-1760.832
	2	302	235	-1760.832
	2	303	228	-1760.832
	2	303	230	-1760.832
	2	303	231	-1760.832
	2	303	232	-1760.832
	2	304	230	-1760.832
	2	304	231	-1760.832
	2	305	228	-1760.832
	2	292	234	-1760.832
	2	293	234	-1760.832
	2	293	235	-1760.832
	2	294	234	-1760.832
	2	296	234	-1760.832
	2	297	234	-1760.832
	2	301	233	-1760.832
	2	302	230	-1760.832
	2	302	231	-1760.832
	2	302	232	-1760.832
	2	304	228	-1760.832
	2	314	82	-2315.52
	2	314	84	-2315.52
	2	315	82	-2315.52
	2	315	83	-2315.52
	2	10	128	-1883.52
	34	0		
	2	169	180	-48384
	2	163	181	-16416
	2	137	160	-12960
	2	296	230	-1827.36
	2	297	230	-1827.36
	2	299	231	-1827.36
	2	300	232	-1827.36
	2	301	235	-1827.36
	2	301	236	-1827.36
	2	301	237	-1827.36
	2	302	235	-1827.36
	2	303	228	-1827.36
	2	303	230	-1827.36
	2	303	231	-1827.36
	2	303	232	-1827.36
	2	304	230	-1827.36
	2	304	231	-1827.36
	2	305	228	-1827.36
	2	292	234	-1827.36
	2	293	234	-1827.36
	2	293	235	-1827.36
	2	294	234	-1827.36
	2	296	234	-1827.36
	2	297	234	-1827.36
	2	301	233	-1827.36
	2	302	230	-1827.36
	2	302	231	-1827.36
	2	302	232	-1827.36
	2	304	228	-1827.36
	2	314	82	-2315.52
	2	314	84	-2315.52
	2	315	82	-2315.52
	2	315	83	-2315.52
	2	10	128	-1883.52
	34	0		
	2	169	180	-31104
	2	163	181	-9504
	2	137	160	-20736
	2	296	230	-2127.168
	2	297	230	-2127.168
	2	299	231	-2127.168
	2	300	232	-2127.168
	2	301	235	-2127.168
	2	301	236	-2127.168
	2	301	237	-2127.168
	2	302	235	-2127.168
	2	303	228	-2127.168
	2	303	230	-2127.168
	2	303	231	-2127.168
	2	303	232	-2127.168
	2	304	230	-2127.168
	2	304	231	-2127.168
	2	305	228	-2127.168
	2	292	234	-2127.168
	2	293	234	-2127.168
	2	293	235	-2127.168
	2	294	234	-2127.168
	2	296	234	-2127.168
	2	297	234	-2127.168
	2	301	233	-2127.168
	2	302	230	-2127.168
	2	302	231	-2127.168
	2	302	232	-2127.168
	2	304	228	-2127.168
	2	314	82	-2315.52
	2	314	84	-2315.52
	2	315	82	-2315.52
	2	315	83	-2315.52
	2	10	128	-1883.52
	34	0		
	2	169	180	-46656
	2	163	181	-12960
	2	137	160	-11232
	2	296	230	-631.584
	2	297	230	-631.584
	2	299	231	-631.584
	2	300	232	-631.584
	2	301	235	-631.584
	2	301	236	-631.584
	2	301	237	-631.584
	2	302	235	-631.584
	2	303	228	-631.584
	2	303	230	-631.584
	2	303	231	-631.584
	2	303	232	-631.584
	2	304	230	-631.584
	2	304	231	-631.584
	2	305	228	-631.584
	2	292	234	-631.584
	2	293	234	-631.584
	2	293	235	-631.584
	2	294	234	-631.584
	2	296	234	-631.584
	2	297	234	-631.584
	2	301	233	-631.584
	2	302	230	-631.584
	2	302	231	-631.584
	2	302	232	-631.584
	2	304	228	-631.584
	2	314	82	-2315.52
	2	314	84	-2315.52
	2	315	82	-2315.52
	2	315	83	-2315.52
	2	10	128	0
	34	0		
	2	169	180	-60480
	2	163	181	-18144
	2	137	160	-18144
	2	296	230	-1196.64
	2	297	230	-1196.64
	2	299	231	-1196.64
	2	300	232	-1196.64
	2	301	235	-1196.64
	2	301	236	-1196.64
	2	301	237	-1196.64
	2	302	235	-1196.64
	2	303	228	-1196.64
	2	303	230	-1196.64
	2	303	231	-1196.64
	2	303	232	-1196.64
	2	304	230	-1196.64
	2	304	231	-1196.64
	2	305	228	-1196.64
	2	292	234	-1196.64
	2	293	234	-1196.64
	2	293	235	-1196.64
	2	294	234	-1196.64
	2	296	234	-1196.64
	2	297	234	-1196.64
	2	301	233	-1196.64
	2	302	230	-1196.64
	2	302	231	-1196.64
	2	302	232	-1196.64
	2	304	228	-1196.64
	2	314	82	-2315.52
	2	314	84	-2315.52
	2	315	82	-2315.52
	2	315	83	-2315.52
	2	10	128	-604.8
	34	0		
	2	169	180	-61344
	2	163	181	-20736
	2	137	160	-15552
	2	296	230	-1296
	2	297	230	-1296
	2	299	231	-1296
	2	300	232	-1296
	2	301	235	-1296
	2	301	236	-1296
	2	301	237	-1296
	2	302	235	-1296
	2	303	228	-1296
	2	303	230	-1296
	2	303	231	-1296
	2	303	232	-1296
	2	304	230	-1296
	2	304	231	-1296
	2	305	228	-1296
	2	292	234	-1296
	2	293	234	-1296
	2	293	235	-1296
	2	294	234	-1296
	2	296	234	-1296
	2	297	234	-1296
	2	301	233	-1296
	2	302	230	-1296
	2	302	231	-1296
	2	302	232	-1296
	2	304	228	-1296
	2	314	82	-2315.52
	2	314	84	-2315.52
	2	315	82	-2315.52
	2	315	83	-2315.52
	2	10	128	-18230.4
	34	0		
	2	169	180	-51840
	2	163	181	-18144
	2	137	160	-16416
	2	296	230	-2160
	2	297	230	-2160
	2	299	231	-2160
	2	300	232	-2160
	2	301	235	-2160
	2	301	236	-2160
	2	301	237	-2160
	2	302	235	-2160
	2	303	228	-2160
	2	303	230	-2160
	2	303	231	-2160
	2	303	232	-2160
	2	304	230	-2160
	2	304	231	-2160
	2	305	228	-2160
	2	292	234	-2160
	2	293	234	-2160
	2	293	235	-2160
	2	294	234	-2160
	2	296	234	-2160
	2	297	234	-2160
	2	301	233	-2160
	2	302	230	-2160
	2	302	231	-2160
	2	302	232	-2160
	2	304	228	-2160
	2	314	82	-2315.52
	2	314	84	-2315.52
	2	315	82	-2315.52
	2	315	83	-2315.52
	2	10	128	-846.72
	34	0		
	2	169	180	-36288
	2	163	181	-13824
	2	137	160	-21600
	2	296	230	-1328.832
	2	297	230	-1328.832
	2	299	231	-1328.832
	2	300	232	-1328.832
	2	301	235	-1328.832
	2	301	236	-1328.832
	2	301	237	-1328.832
	2	302	235	-1328.832
	2	303	228	-1328.832
	2	303	230	-1328.832
	2	303	231	-1328.832
	2	303	232	-1328.832
	2	304	230	-1328.832
	2	304	231	-1328.832
	2	305	228	-1328.832
	2	292	234	-1328.832
	2	293	234	-1328.832
	2	293	235	-1328.832
	2	294	234	-1328.832
	2	296	234	-1328.832
	2	297	234	-1328.832
	2	301	233	-1328.832
	2	302	230	-1328.832
	2	302	231	-1328.832
	2	302	232	-1328.832
	2	304	228	-1328.832
	2	314	82	-2315.52
	2	314	84	-2315.52
	2	315	82	-2315.52
	2	315	83	-2315.52
	2	10	128	0
	34	0		
	2	169	180	-75168
	2	163	181	-18144
	2	137	160	-15552
	2	296	230	-1296
	2	297	230	-1296
	2	299	231	-1296
	2	300	232	-1296
	2	301	235	-1296
	2	301	236	-1296
	2	301	237	-1296
	2	302	235	-1296
	2	303	228	-1296
	2	303	230	-1296
	2	303	231	-1296
	2	303	232	-1296
	2	304	230	-1296
	2	304	231	-1296
	2	305	228	-1296
	2	292	234	-1296
	2	293	234	-1296
	2	293	235	-1296
	2	294	234	-1296
	2	296	234	-1296
	2	297	234	-1296
	2	301	233	-1296
	2	302	230	-1296
	2	302	231	-1296
	2	302	232	-1296
	2	304	228	-1296
	2	314	82	-2315.52
	2	314	84	-2315.52
	2	315	82	-2315.52
	2	315	83	-2315.52
	2	10	128	0
	34	0		
	2	169	180	-77760
	2	163	181	-27648
	2	137	160	-12960
	2	296	230	-1162.944
	2	297	230	-1162.944
	2	299	231	-1162.944
	2	300	232	-1162.944
	2	301	235	-1162.944
	2	301	236	-1162.944
	2	301	237	-1162.944
	2	302	235	-1162.944
	2	303	228	-1162.944
	2	303	230	-1162.944
	2	303	231	-1162.944
	2	303	232	-1162.944
	2	304	230	-1162.944
	2	304	231	-1162.944
	2	305	228	-1162.944
	2	292	234	-1162.944
	2	293	234	-1162.944
	2	293	235	-1162.944
	2	294	234	-1162.944
	2	296	234	-1162.944
	2	297	234	-1162.944
	2	301	233	-1162.944
	2	302	230	-1162.944
	2	302	231	-1162.944
	2	302	232	-1162.944
	2	304	228	-1162.944
	2	314	82	-2315.52
	2	314	84	-2315.52
	2	315	82	-2315.52
	2	315	83	-2315.52
	2	10	128	0
	34	0		
	2	169	180	-49248
	2	163	181	-16416
	2	137	160	0
	2	296	230	0
	2	297	230	0
	2	299	231	0
	2	300	232	0
	2	301	235	0
	2	301	236	0
	2	301	237	0
	2	302	235	0
	2	303	228	0
	2	303	230	0
	2	303	231	0
	2	303	232	0
	2	304	230	0
	2	304	231	0
	2	305	228	0
	2	292	234	0
	2	293	234	0
	2	293	235	0
	2	294	234	0
	2	296	234	0
	2	297	234	0
	2	301	233	0
	2	302	230	0
	2	302	231	0
	2	302	232	0
	2	304	228	0
	2	314	82	-2315.52
	2	314	84	-2315.52
	2	315	82	-2315.52
	2	315	83	-2315.52
	2	10	128	0
	34	0		
	2	169	180	-11232
	2	163	181	-16416
	2	137	160	0
	2	296	230	-664.416
	2	297	230	-664.416
	2	299	231	-664.416
	2	300	232	-664.416
	2	301	235	-664.416
	2	301	236	-664.416
	2	301	237	-664.416
	2	302	235	-664.416
	2	303	228	-664.416
	2	303	230	-664.416
	2	303	231	-664.416
	2	303	232	-664.416
	2	304	230	-664.416
	2	304	231	-664.416
	2	305	228	-664.416
	2	292	234	-664.416
	2	293	234	-664.416
	2	293	235	-664.416
	2	294	234	-664.416
	2	296	234	-664.416
	2	297	234	-664.416
	2	301	233	-664.416
	2	302	230	-664.416
	2	302	231	-664.416
	2	302	232	-664.416
	2	304	228	-664.416
	2	314	82	-2315.52
	2	314	84	-2315.52
	2	315	82	-2315.52
	2	315	83	-2315.52
	2	10	128	0
	34	0		
	2	169	180	-11232
	2	163	181	-16416
	2	137	160	0
	2	296	230	-1794.528
	2	297	230	-1794.528
	2	299	231	-1794.528
	2	300	232	-1794.528
	2	301	235	-1794.528
	2	301	236	-1794.528
	2	301	237	-1794.528
	2	302	235	-1794.528
	2	303	228	-1794.528
	2	303	230	-1794.528
	2	303	231	-1794.528
	2	303	232	-1794.528
	2	304	230	-1794.528
	2	304	231	-1794.528
	2	305	228	-1794.528
	2	292	234	-1794.528
	2	293	234	-1794.528
	2	293	235	-1794.528
	2	294	234	-1794.528
	2	296	234	-1794.528
	2	297	234	-1794.528
	2	301	233	-1794.528
	2	302	230	-1794.528
	2	302	231	-1794.528
	2	302	232	-1794.528
	2	304	228	-1794.528
	2	314	82	-2315.52
	2	314	84	-2315.52
	2	315	82	-2315.52
	2	315	83	-2315.52
	2	10	128	0
	34	0		
	2	169	180	-11232
	2	163	181	-16416
	2	137	160	-62208
	2	296	230	-4818.528
	2	297	230	-4818.528
	2	299	231	-4818.528
	2	300	232	-4818.528
	2	301	235	-4818.528
	2	301	236	-4818.528
	2	301	237	-4818.528
	2	302	235	-4818.528
	2	303	228	-4818.528
	2	303	230	-4818.528
	2	303	231	-4818.528
	2	303	232	-4818.528
	2	304	230	-4818.528
	2	304	231	-4818.528
	2	305	228	-4818.528
	2	292	234	-4818.528
	2	293	234	-4818.528
	2	293	235	-4818.528
	2	294	234	-4818.528
	2	296	234	-4818.528
	2	297	234	-4818.528
	2	301	233	-4818.528
	2	302	230	-4818.528
	2	302	231	-4818.528
	2	302	232	-4818.528
	2	304	228	-4818.528
	2	314	82	-2315.52
	2	314	84	-2315.52
	2	315	82	-2315.52
	2	315	83	-2315.52
	2	10	128	0
	34	0		
	2	169	180	-25920
	2	163	181	-16416
	2	137	160	0
	2	296	230	0
	2	297	230	0
	2	299	231	0
	2	300	232	0
	2	301	235	0
	2	301	236	0
	2	301	237	0
	2	302	235	0
	2	303	228	0
	2	303	230	0
	2	303	231	0
	2	303	232	0
	2	304	230	0
	2	304	231	0
	2	305	228	0
	2	292	234	0
	2	293	234	0
	2	293	235	0
	2	294	234	0
	2	296	234	0
	2	297	234	0
	2	301	233	0
	2	302	230	0
	2	302	231	0
	2	302	232	0
	2	304	228	0
	2	314	82	-2315.52
	2	314	84	-2315.52
	2	315	82	-2315.52
	2	315	83	-2315.52
	2	10	128	0
	34	0		
	2	169	180	-48384
	2	163	181	-16416
	2	137	160	0
	2	296	230	-266.112
	2	297	230	-266.112
	2	299	231	-266.112
	2	300	232	-266.112
	2	301	235	-266.112
	2	301	236	-266.112
	2	301	237	-266.112
	2	302	235	-266.112
	2	303	228	-266.112
	2	303	230	-266.112
	2	303	231	-266.112
	2	303	232	-266.112
	2	304	230	-266.112
	2	304	231	-266.112
	2	305	228	-266.112
	2	292	234	-266.112
	2	293	234	-266.112
	2	293	235	-266.112
	2	294	234	-266.112
	2	296	234	-266.112
	2	297	234	-266.112
	2	301	233	-266.112
	2	302	230	-266.112
	2	302	231	-266.112
	2	302	232	-266.112
	2	304	228	-266.112
	2	314	82	-2315.52
	2	314	84	-2315.52
	2	315	82	-2315.52
	2	315	83	-2315.52
	2	10	128	0
	34	0		
	2	169	180	-48384
	2	163	181	-16416
	2	137	160	0
	2	296	230	-2725.056
	2	297	230	-2725.056
	2	299	231	-2725.056
	2	300	232	-2725.056
	2	301	235	-2725.056
	2	301	236	-2725.056
	2	301	237	-2725.056
	2	302	235	-2725.056
	2	303	228	-2725.056
	2	303	230	-2725.056
	2	303	231	-2725.056
	2	303	232	-2725.056
	2	304	230	-2725.056
	2	304	231	-2725.056
	2	305	228	-2725.056
	2	292	234	-2725.056
	2	293	234	-2725.056
	2	293	235	-2725.056
	2	294	234	-2725.056
	2	296	234	-2725.056
	2	297	234	-2725.056
	2	301	233	-2725.056
	2	302	230	-2725.056
	2	302	231	-2725.056
	2	302	232	-2725.056
	2	304	228	-2725.056
	2	314	82	-2315.52
	2	314	84	-2315.52
	2	315	82	-2315.52
	2	315	83	-2315.52
	2	10	128	0
	34	0		
	2	169	180	-48384
	2	163	181	-16416
	2	137	160	-58752
	2	296	230	-6346.944
	2	297	230	-6346.944
	2	299	231	-6346.944
	2	300	232	-6346.944
	2	301	235	-6346.944
	2	301	236	-6346.944
	2	301	237	-6346.944
	2	302	235	-6346.944
	2	303	228	-6346.944
	2	303	230	-6346.944
	2	303	231	-6346.944
	2	303	232	-6346.944
	2	304	230	-6346.944
	2	304	231	-6346.944
	2	305	228	-6346.944
	2	292	234	-6346.944
	2	293	234	-6346.944
	2	293	235	-6346.944
	2	294	234	-6346.944
	2	296	234	-6346.944
	2	297	234	-6346.944
	2	301	233	-6346.944
	2	302	230	-6346.944
	2	302	231	-6346.944
	2	302	232	-6346.944
	2	304	228	-6346.944
	2	314	82	-2315.52
	2	314	84	-2315.52
	2	315	82	-2315.52
	2	315	83	-2315.52