"DEPENDENT NAME", "VALUE"
Q1c                 ,     1300.911499023438    
Q2c                 ,     1304.115234375000    
Q3c                 ,     1321.161010742188    
Q4c                 ,     1308.521484375000    
Q5c                 ,     1308.158935546875    
Q6c                 ,     1317.718994140625    
MODFLOW_STAT        ,     0.000000000000000    
DEWATER_STAT        ,     0.000000000000000    
