"DEPENDENT NAME", "VALUE"
Q1c                 ,     1301.020507812500    
Q2c                 ,     1304.112060546875    
Q3c                 ,     1317.046142578125    
Q4c                 ,     1308.528808593750    
Q5c                 ,     1308.127929687500    
Q6c                 ,     1317.709106445312    
MODFLOW_STAT        ,     0.000000000000000    
DEWATER_STAT        ,     0.000000000000000    
