"DEPENDENT NAME", "VALUE"
Q1c                 ,     1301.020629882812    
Q2c                 ,     1304.107666015625    
Q3c                 ,     1314.340576171875    
Q4c                 ,     1308.529418945312    
Q5c                 ,     1308.145385742188    
Q6c                 ,     1317.660522460938    
MODFLOW_STAT        ,     0.000000000000000    
DEWATER_STAT        ,     0.000000000000000    
