"DEPENDENT NAME", "VALUE"
Q1c                 ,     1293.608520507812    
Q2c                 ,     1311.546875000000    
Q3c                 ,     1300.706787109375    
Q4c                 ,     1300.110717773438    
Q5c                 ,     1301.028564453125    
Q6c                 ,     1307.917480468750    
MODFLOW_STAT        ,     0.000000000000000    
DEWATER_STAT        ,     0.000000000000000    
