"DEPENDENT NAME", "VALUE"
Q1c                 ,     1332.304077148438    
Q2c                 ,     1314.758300781250    
Q3c                 ,     1300.284057617188    
Q4c                 ,     1315.305786132812    
Q5c                 ,     1317.086791992188    
Q6c                 ,     1315.755615234375    
MODFLOW_STAT        ,     0.000000000000000    
DEWATER_STAT        ,     0.000000000000000    
