"DEPENDENT NAME", "VALUE"
Q1c                 ,     30.85452957714178    
Q2c                 ,     42.63498305585640    
Q4c                 ,     36.07143038286334    
Q1d                 ,     23.76965578686716    
Q2d                 ,     40.41244630170097    
Q4d                 ,     33.50259463314325    
S01_9               ,     142943.7021914828    
S01_10              ,     149749.3883992692    
S01_11              ,     141891.2573612953    
S01_12              ,     144771.6613721139    
S02_11              ,     166007.0075468284    
S02_12              ,     170322.2657734878    
S03_9               ,     74458.95331298500    
S03_10              ,     77730.04371931875    
S03_11              ,     73758.92970493608    
S03_12              ,     75360.58667563966    
S04_11              ,     247237.6441750163    
S04_12              ,     253982.5420024406    
MODFLOW_STAT        ,     0.000000000000000    
DEWATER_STAT        ,     0.000000000000000    
