"DEPENDENT NAME", "VALUE"
b_01                ,     48.08310656617650    
b_02                ,     62.05417901710366    
b_03                ,     68.48480915071069    
b_04                ,     44.61166559243016    
b_05                ,     56.93522924297547    
b_06                ,     64.58361481483074    
S01_9               ,     147761.8150942806    
S01_10              ,     154628.6385956348    
S01_11              ,     146805.2489571522    
S01_12              ,     149703.3714284429    
S02_11              ,     162790.2051811744    
S02_12              ,     167145.3642747013    
S03_9               ,     63026.96819664277    
S03_10              ,     66526.34683836183    
S03_11              ,     62624.12512644559    
S03_12              ,     64246.40436503126    
S04_11              ,     235745.1389264392    
S04_12              ,     242550.9258498669    
MODFLOW_STAT        ,     0.000000000000000    
DEWATER_STAT        ,     0.000000000000000    
