"DEPENDENT NAME", "VALUE"
Q1c                 ,     21.32819926195429    
Q2c                 ,     34.17114342801739    
Q3c                 ,     41.75551192431849    
Q4c                 ,     38.19046354291635    
S01_9               ,     143288.5713506340    
S01_10              ,     150075.7351873799    
S01_11              ,     142211.6187618783    
S01_12              ,     145090.2839863092    
S02_11              ,     152817.4758794664    
S02_12              ,     157130.2254860583    
S03_9               ,     74347.40501941433    
S03_10              ,     77618.64930485004    
S03_11              ,     73647.20562123296    
S03_12              ,     75248.93545443860    
S04_11              ,     225987.7715038596    
S04_12              ,     232729.5435685938    
MODFLOW_STAT        ,     0.000000000000000    
DEWATER_STAT        ,     0.000000000000000    
