"DEPENDENT NAME", "VALUE"
S01_9               ,     150338.8632402709    
S01_10              ,     157148.2569600448    
S01_11              ,     149292.6091583163    
S01_12              ,     152174.3571170130    
S02_11              ,     175306.0239524818    
S02_12              ,     179624.8529727547    
S03_9               ,     74520.77386428371    
S03_10              ,     77792.35777748967    
S03_11              ,     73821.62665609499    
S03_12              ,     75423.29220792127    
S04_11              ,     259888.3413139512    
S04_12              ,     266639.0573206471    
MODFLOW_STAT        ,     0.000000000000000    
DEWATER_STAT        ,     0.000000000000000    
