"DEPENDENT NAME", "VALUE"
Q1c                 ,     45.41255913419344    
Q2c                 ,     46.21244334071967    
Q3c                 ,     49.25046152695595    
Q4c                 ,     60.78580120143808    
S01_9               ,     110618.1907961006    
S01_10              ,     116356.9281583139    
S01_11              ,     109564.9104607632    
S01_12              ,     111614.2057871626    
S02_11              ,     108715.0450197585    
S02_12              ,     112054.4601927747    
S03_9               ,     56783.66794623998    
S03_10              ,     60273.62274723756    
S03_11              ,     56128.68020539650    
S03_12              ,     57595.47214977047    
S04_11              ,     167123.8418134091    
S04_12              ,     172381.8628506885    
MODFLOW_STAT        ,     0.000000000000000    
DEWATER_STAT        ,     0.000000000000000    
