"DEPENDENT NAME", "VALUE"
S01_9               ,     535757.1772382249    
S01_10              ,     549717.5759926988    
S01_11              ,     533647.2993288578    
S01_12              ,     543385.8472303440    
S02_11              ,     753006.4998160549    
S02_12              ,     770453.5775675868    
S03_9               ,     275354.9162479162    
S03_10              ,     279648.6198908899    
S03_11              ,     274148.5636083919    
S03_12              ,     276926.4645219157    
S04_11              ,     1130707.946791530    
S04_12              ,     1154208.715896375    
MODFLOW_STAT        ,     0.000000000000000    
DEWATER_STAT        ,     0.000000000000000    
