"DEPENDENT NAME", "VALUE"
S01_9               ,     546140.0378927689    
S01_10              ,     555353.6712171410    
S01_11              ,     542843.5847656484    
S01_12              ,     548808.0840261676    
S02_11              ,     767605.7388345423    
S02_12              ,     777400.8011198752    
S03_9               ,     274583.2490227988    
S03_10              ,     278573.3922266369    
S03_11              ,     272476.1016591103    
S03_12              ,     275619.8326219524    
S04_11              ,     1126294.899173976    
S04_12              ,     1148391.798894949    
MODFLOW_STAT        ,     0.000000000000000    
DEWATER_STAT        ,     0.000000000000000    
