"DEPENDENT NAME", "VALUE"
Q1c                 ,     47.50216452278755    
Q2c                 ,     26.55970172638468    
Q3c                 ,     35.48710362198386    
Q4c                 ,     21.55506909564673    
S01_9               ,     116239.3991983737    
S01_10              ,     122025.7907104607    
S01_11              ,     115268.3327553325    
S01_12              ,     117342.8317346924    
S02_11              ,     120613.0633858240    
S02_12              ,     123994.7234514261    
S03_9               ,     58082.10636027155    
S03_10              ,     61586.88360129545    
S03_11              ,     57451.92569771291    
S03_12              ,     58925.45432330749    
S04_11              ,     177540.0951101736    
S04_12              ,     182847.5132586554    
MODFLOW_STAT        ,     0.000000000000000    
DEWATER_STAT        ,     0.000000000000000    
