"DEPENDENT NAME", "VALUE"
S01_9               ,     546040.3869127015    
S01_10              ,     555242.4831483287    
S01_11              ,     542731.5713649739    
S01_12              ,     548814.6961613682    
S02_11              ,     767218.6122414233    
S02_12              ,     777491.2351283222    
S03_9               ,     274426.5883579857    
S03_10              ,     278409.1943081195    
S03_11              ,     272311.5576296703    
S03_12              ,     275647.9032679733    
S04_11              ,     1124177.058536025    
S04_12              ,     1149200.505265116    
MODFLOW_STAT        ,     0.000000000000000    
DEWATER_STAT        ,     0.000000000000000    
