"DEPENDENT NAME", "VALUE"
Q1c                 ,     42.33524368346764    
Q2c                 ,     52.80989036102557    
Q3c                 ,     48.26362954082504    
Q4c                 ,     51.51360744376480    
S01_9               ,     106308.1839737279    
S01_10              ,     112070.3551223964    
S01_11              ,     105295.9768145109    
S01_12              ,     107358.2754442468    
S02_11              ,     108368.1414705559    
S02_12              ,     111728.6967356783    
S03_9               ,     52307.93460626586    
S03_10              ,     55802.52779237113    
S03_11              ,     51661.50153416340    
S03_12              ,     53131.06483932288    
S04_11              ,     162073.4583915444    
S04_12              ,     167355.4308331856    
MODFLOW_STAT        ,     0.000000000000000    
DEWATER_STAT        ,     0.000000000000000    
