"DEPENDENT NAME", "VALUE"
Q1c                 ,     36.42953988544448    
Q2c                 ,     30.65088061229746    
Q3c                 ,     60.04801623253591    
Q4c                 ,     51.46806161049174    
S01_9               ,     116361.7588504606    
S01_10              ,     122126.8610396643    
S01_11              ,     115352.8518027835    
S01_12              ,     117414.7265527577    
S02_11              ,     116934.8903255144    
S02_12              ,     120294.7518117225    
S03_9               ,     43791.13087108578    
S03_10              ,     47284.23374455758    
S03_11              ,     43142.47715917147    
S03_12              ,     44611.25689630364    
S04_11              ,     157268.7468462191    
S04_12              ,     162549.6316389721    
MODFLOW_STAT        ,     0.000000000000000    
DEWATER_STAT        ,     0.000000000000000    
