"DEPENDENT NAME", "VALUE"
Q1c                 ,     37.60673674788053    
Q2c                 ,     72.33487999352847    
Q3c                 ,     59.94648539805844    
Q4c                 ,     34.96630688441093    
S01_9               ,     114233.9791942085    
S01_10              ,     119947.7322171502    
S01_11              ,     113136.2847253466    
S01_12              ,     115170.7886831536    
S02_11              ,     112793.5515408025    
S02_12              ,     116109.0231683832    
S03_9               ,     43639.34241176054    
S03_10              ,     47121.02111605020    
S03_11              ,     42970.93299756597    
S03_12              ,     44433.57893365558    
S04_11              ,     157490.4102908885    
S04_12              ,     162720.4081259600    
MODFLOW_STAT        ,     0.000000000000000    
DEWATER_STAT        ,     0.000000000000000    
