"DEPENDENT NAME", "VALUE"
Q1c                 ,     32.85979754553950    
Q2c                 ,     46.39152456710921    
Q3c                 ,     57.30567876312119    
Q4c                 ,     52.15895712339923    
S01_9               ,     106366.5473215516    
S01_10              ,     112112.3121778533    
S01_11              ,     105326.9709173173    
S01_12              ,     107381.7020503235    
S02_11              ,     108342.4269409243    
S02_12              ,     111691.8477507549    
S03_9               ,     47948.68606019094    
S03_10              ,     51443.63646627809    
S03_11              ,     47302.36613261581    
S03_12              ,     48771.14643027000    
S04_11              ,     157832.3866628765    
S04_12              ,     163102.2309506515    
MODFLOW_STAT        ,     0.000000000000000    
DEWATER_STAT        ,     0.000000000000000    
