"DEPENDENT NAME", "VALUE"
Q1c                 ,     40.46643905509370    
Q2c                 ,     34.16558216166948    
Q3c                 ,     44.13681993997255    
Q4c                 ,     42.60234580923650    
S01_9               ,     113733.2521012316    
S01_10              ,     119501.8787730257    
S01_11              ,     112731.2448463243    
S01_12              ,     114795.9960121345    
S02_11              ,     112101.0069295404    
S02_12              ,     115465.9301245753    
S03_9               ,     44734.16045849035    
S03_10              ,     48230.90945458048    
S03_11              ,     44091.59027078714    
S03_12              ,     45561.69919178345    
S04_11              ,     157750.9948242820    
S04_12              ,     163038.0505824657    
MODFLOW_STAT        ,     0.000000000000000    
DEWATER_STAT        ,     0.000000000000000    
