"DEPENDENT NAME", "VALUE"
S01_9               ,     532128.8745747868    
S01_10              ,     545424.3449829135    
S01_11              ,     533948.2658183005    
S01_12              ,     539812.4864830826    
S02_11              ,     751662.7064915665    
S02_12              ,     761177.6234206569    
S03_9               ,     273874.6538580074    
S03_10              ,     278446.5594010148    
S03_11              ,     273432.5351319066    
S03_12              ,     275870.5682262594    
S04_11              ,     1133273.148446258    
S04_12              ,     1146634.168709187    
MODFLOW_STAT        ,     0.000000000000000    
DEWATER_STAT        ,     0.000000000000000    
