"DEPENDENT NAME", "VALUE"
S01_9               ,     536429.8055087783    
S01_10              ,     546538.4945802463    
S01_11              ,     533259.9238808209    
S01_12              ,     539367.4047577637    
S02_11              ,     752367.6266421546    
S02_12              ,     761193.3744863814    
S03_9               ,     271109.0597440098    
S03_10              ,     275136.4926224791    
S03_11              ,     269864.6102102661    
S03_12              ,     272372.2152017919    
S04_11              ,     1130009.174167450    
S04_12              ,     1142747.084318341    
MODFLOW_STAT        ,     0.000000000000000    
DEWATER_STAT        ,     0.000000000000000    
