"DEPENDENT NAME", "VALUE"
Q1c                 ,     61.77047362157219    
Q2c                 ,     47.81442363088396    
Q4c                 ,     56.07143069327270    
Q1d                 ,     55.17978039661946    
Q2d                 ,     43.45135239198754    
Q4d                 ,     53.58412287931605    
S01_9               ,     139937.2709125737    
S01_10              ,     146715.2076797734    
S01_11              ,     138848.7067181336    
S01_12              ,     141726.4214279572    
S02_11              ,     164160.7259583995    
S02_12              ,     168472.3719467629    
S03_9               ,     74500.31145926985    
S03_10              ,     77771.30195503675    
S03_11              ,     73800.12404406600    
S03_12              ,     75401.76801374258    
S04_11              ,     247913.7818369601    
S04_12              ,     254654.5277036855    
MODFLOW_STAT        ,     0.000000000000000    
DEWATER_STAT        ,     0.000000000000000    
