"DEPENDENT NAME", "VALUE"
S01_9               ,     547123.8055029283    
S01_10              ,     556329.9631258139    
S01_11              ,     544356.9306520519    
S01_12              ,     549911.3269389318    
S02_11              ,     773009.3905718146    
S02_12              ,     780847.6789394319    
S03_9               ,     275895.4216740402    
S03_10              ,     280041.0935695468    
S03_11              ,     274821.3544229485    
S03_12              ,     272640.0553225798    
S04_11              ,     1156294.875340866    
S04_12              ,     1163225.974769873    
MODFLOW_STAT        ,     0.000000000000000    
DEWATER_STAT        ,     0.000000000000000    
