"DEPENDENT NAME", "VALUE"
Q1c                 ,     38.07541464968847    
Q2c                 ,     66.07404225739269    
Q3c                 ,     60.16132861318322    
Q4c                 ,     39.33698530721419    
S01_9               ,     112788.1953143735    
S01_10              ,     118467.2134532280    
S01_11              ,     111630.4458541987    
S01_12              ,     113646.4349692562    
S02_11              ,     112694.9121849366    
S02_12              ,     115980.3989525157    
S03_9               ,     44957.61112996050    
S03_10              ,     48431.66077102865    
S03_11              ,     44275.90204245874    
S03_12              ,     45734.44707554032    
S04_11              ,     159015.4375629113    
S04_12              ,     164211.1141684041    
MODFLOW_STAT        ,     0.000000000000000    
DEWATER_STAT        ,     0.000000000000000    
