"DEPENDENT NAME", "VALUE"
S01_9               ,     541488.4136250581    
S01_10              ,     543902.1821657363    
S01_11              ,     538416.2232928475    
S01_12              ,     542840.2067817977    
S02_11              ,     753906.3299875279    
S02_12              ,     761266.7205464926    
S03_9               ,     272997.5785812104    
S03_10              ,     277629.5046088261    
S03_11              ,     271788.6560413335    
S03_12              ,     274403.1662480748    
S04_11              ,     1126762.948129318    
S04_12              ,     1139397.748110916    
MODFLOW_STAT        ,     0.000000000000000    
DEWATER_STAT        ,     0.000000000000000    
