"DEPENDENT NAME", "VALUE"
Q1c                 ,     1301.019165039062    
Q2c                 ,     1304.110473632812    
Q3c                 ,     1314.330078125000    
Q4c                 ,     1308.528686523438    
Q5c                 ,     1308.044311523438    
Q6c                 ,     1317.705322265625    
MODFLOW_STAT        ,     0.000000000000000    
DEWATER_STAT        ,     0.000000000000000    
