"DEPENDENT NAME", "VALUE"
Q1c                 ,     1311.078613281250    
Q2c                 ,     1306.758666992188    
Q3c                 ,     1300.707275390625    
Q4c                 ,     1315.448486328125    
Q5c                 ,     1309.274536132812    
Q6c                 ,     1307.908325195312    
MODFLOW_STAT        ,     0.000000000000000    
DEWATER_STAT        ,     0.000000000000000    
